data_HKUST-1

_audit_creation_method RASPA-1.0
_audit_creation_date 2021-5-12
_audit_author_name 'hiuki'

_cell_length_a    52.6068
_cell_length_b    52.6068
_cell_length_c    52.6068
_cell_angle_alpha 90
_cell_angle_beta  90
_cell_angle_gamma 90
_cell_volume      145588

_symmetry_cell_setting          cubic
_symmetry_space_group_name_Hall 'P 1'
_symmetry_space_group_name_H-M  'P 1'
_symmetry_Int_Tables_number     1

_symmetry_equiv_pos_as_xyz 'x,y,z'

loop_
_atom_site_label
_atom_site_type_symbol
_atom_site_fract_x
_atom_site_fract_y
_atom_site_fract_z
_atom_site_charge
Cu1      Cu     0.108060000000     0.391940000000     0.000000000000     0          
O1       O      0.093915000000     0.371015000000     0.475480000000     0          
O2       O      0.078400000000     0.421600000000     0.000000000000     0          
C1       C      0.102205000000     0.352205000000     0.465040000000     0          
C2       C      0.090560000000     0.340560000000     0.441890000000     0          
C3       C      0.101380000000     0.318925000000     0.431075000000     0          
H1       H      0.115505000000     0.311866500000     0.438133500000     0          
C1s      C      0.079350000000     0.079350000000     0.079350000000     0          
C2s      C      0.190450000000     0.250000000000     0.190450000000     0          
Cu1      Cu     0.108060000000     0.108060000000     0.000000000000     0          
O1       O      0.128985000000     0.093915000000     0.475480000000     0          
O2       O      0.078400000000     0.078400000000     0.000000000000     0          
C1       C      0.147795000000     0.102205000000     0.465040000000     0          
C2       C      0.159440000000     0.090560000000     0.441890000000     0          
C3       C      0.181075000000     0.101380000000     0.431075000000     0          
H1       H      0.188133500000     0.115505000000     0.438133500000     0          
C1s      C      0.420650000000     0.079350000000     0.079350000000     0          
C2s      C      0.250000000000     0.190450000000     0.190450000000     0          
Cu1      Cu     0.391940000000     0.108060000000     0.000000000000     0          
O1       O      0.406085000000     0.128985000000     0.475480000000     0          
O2       O      0.421600000000     0.078400000000     0.000000000000     0          
C1       C      0.397795000000     0.147795000000     0.465040000000     0          
C2       C      0.409440000000     0.159440000000     0.441890000000     0          
C3       C      0.398620000000     0.181075000000     0.431075000000     0          
H1       H      0.384495000000     0.188133500000     0.438133500000     0          
C1s      C      0.420650000000     0.420650000000     0.079350000000     0          
C2s      C      0.309550000000     0.250000000000     0.190450000000     0          
Cu1      Cu     0.391940000000     0.391940000000     0.000000000000     0          
O1       O      0.371015000000     0.406085000000     0.475480000000     0          
O2       O      0.421600000000     0.421600000000     0.000000000000     0          
C1       C      0.352205000000     0.397795000000     0.465040000000     0          
C2       C      0.340560000000     0.409440000000     0.441890000000     0          
C3       C      0.318925000000     0.398620000000     0.431075000000     0          
H1       H      0.311866500000     0.384495000000     0.438133500000     0          
C1s      C      0.079350000000     0.420650000000     0.079350000000     0          
C2s      C      0.250000000000     0.309550000000     0.190450000000     0          
O1       O      0.093915000000     0.128985000000     0.024520000000     0          
C1       C      0.102205000000     0.147795000000     0.034960000000     0          
C2       C      0.090560000000     0.159440000000     0.058110000000     0          
C3       C      0.101380000000     0.181075000000     0.068925000000     0          
H1       H      0.115505000000     0.188133500000     0.061866500000     0          
C1s      C      0.079350000000     0.420650000000     0.420650000000     0          
C2s      C      0.190450000000     0.250000000000     0.309550000000     0          
O1       O      0.371015000000     0.093915000000     0.024520000000     0          
C1       C      0.352205000000     0.102205000000     0.034960000000     0          
C2       C      0.340560000000     0.090560000000     0.058110000000     0          
C3       C      0.318925000000     0.101380000000     0.068925000000     0          
H1       H      0.311866500000     0.115505000000     0.061866500000     0          
C1s      C      0.079350000000     0.079350000000     0.420650000000     0          
C2s      C      0.250000000000     0.190450000000     0.309550000000     0          
O1       O      0.406085000000     0.371015000000     0.024520000000     0          
C1       C      0.397795000000     0.352205000000     0.034960000000     0          
C2       C      0.409440000000     0.340560000000     0.058110000000     0          
C3       C      0.398620000000     0.318925000000     0.068925000000     0          
H1       H      0.384495000000     0.311866500000     0.061866500000     0          
C1s      C      0.420650000000     0.079350000000     0.420650000000     0          
C2s      C      0.309550000000     0.250000000000     0.309550000000     0          
O1       O      0.128985000000     0.406085000000     0.024520000000     0          
C1       C      0.147795000000     0.397795000000     0.034960000000     0          
C2       C      0.159440000000     0.409440000000     0.058110000000     0          
C3       C      0.181075000000     0.398620000000     0.068925000000     0          
H1       H      0.188133500000     0.384495000000     0.061866500000     0          
C1s      C      0.420650000000     0.420650000000     0.420650000000     0          
C2s      C      0.250000000000     0.309550000000     0.309550000000     0          
Cu1      Cu     0.000000000000     0.108060000000     0.391940000000     0          
O1       O      0.475480000000     0.093915000000     0.371015000000     0          
O2       O      0.000000000000     0.078400000000     0.421600000000     0          
C1       C      0.465040000000     0.102205000000     0.352205000000     0          
C2       C      0.441890000000     0.090560000000     0.340560000000     0          
C3       C      0.431075000000     0.101380000000     0.318925000000     0          
H1       H      0.438133500000     0.115505000000     0.311866500000     0          
C2s      C      0.190450000000     0.190450000000     0.250000000000     0          
Cu1      Cu     0.391940000000     0.000000000000     0.391940000000     0          
O1       O      0.406085000000     0.475480000000     0.371015000000     0          
O2       O      0.421600000000     0.000000000000     0.421600000000     0          
C1       C      0.397795000000     0.465040000000     0.352205000000     0          
C2       C      0.409440000000     0.441890000000     0.340560000000     0          
C3       C      0.398620000000     0.431075000000     0.318925000000     0          
H1       H      0.384495000000     0.438133500000     0.311866500000     0          
C2s      C      0.309550000000     0.190450000000     0.250000000000     0          
Cu1      Cu     0.000000000000     0.391940000000     0.391940000000     0          
O1       O      0.024520000000     0.406085000000     0.371015000000     0          
O2       O      0.000000000000     0.421600000000     0.421600000000     0          
C1       C      0.034960000000     0.397795000000     0.352205000000     0          
C2       C      0.058110000000     0.409440000000     0.340560000000     0          
C3       C      0.068925000000     0.398620000000     0.318925000000     0          
H1       H      0.061866500000     0.384495000000     0.311866500000     0          
C2s      C      0.309550000000     0.309550000000     0.250000000000     0          
Cu1      Cu     0.108060000000     0.000000000000     0.391940000000     0          
O1       O      0.093915000000     0.024520000000     0.371015000000     0          
O2       O      0.078400000000     0.000000000000     0.421600000000     0          
C1       C      0.102205000000     0.034960000000     0.352205000000     0          
C2       C      0.090560000000     0.058110000000     0.340560000000     0          
C3       C      0.101380000000     0.068925000000     0.318925000000     0          
H1       H      0.115505000000     0.061866500000     0.311866500000     0          
C2s      C      0.190450000000     0.309550000000     0.250000000000     0          
Cu1      Cu     0.000000000000     0.391940000000     0.108060000000     0          
O1       O      0.475480000000     0.406085000000     0.128985000000     0          
O2       O      0.000000000000     0.421600000000     0.078400000000     0          
C1       C      0.465040000000     0.397795000000     0.147795000000     0          
C2       C      0.441890000000     0.409440000000     0.159440000000     0          
C3       C      0.431075000000     0.398620000000     0.181075000000     0          
H1       H      0.438133500000     0.384495000000     0.188133500000     0          
Cu1      Cu     0.108060000000     0.000000000000     0.108060000000     0          
O1       O      0.093915000000     0.475480000000     0.128985000000     0          
O2       O      0.078400000000     0.000000000000     0.078400000000     0          
C1       C      0.102205000000     0.465040000000     0.147795000000     0          
C2       C      0.090560000000     0.441890000000     0.159440000000     0          
C3       C      0.101380000000     0.431075000000     0.181075000000     0          
H1       H      0.115505000000     0.438133500000     0.188133500000     0          
Cu1      Cu     0.000000000000     0.108060000000     0.108060000000     0          
O1       O      0.024520000000     0.093915000000     0.128985000000     0          
O2       O      0.000000000000     0.078400000000     0.078400000000     0          
C1       C      0.034960000000     0.102205000000     0.147795000000     0          
C2       C      0.058110000000     0.090560000000     0.159440000000     0          
C3       C      0.068925000000     0.101380000000     0.181075000000     0          
H1       H      0.061866500000     0.115505000000     0.188133500000     0          
Cu1      Cu     0.391940000000     0.000000000000     0.108060000000     0          
O1       O      0.406085000000     0.024520000000     0.128985000000     0          
O2       O      0.421600000000     0.000000000000     0.078400000000     0          
C1       C      0.397795000000     0.034960000000     0.147795000000     0          
C2       C      0.409440000000     0.058110000000     0.159440000000     0          
C3       C      0.398620000000     0.068925000000     0.181075000000     0          
H1       H      0.384495000000     0.061866500000     0.188133500000     0          
O1       O      0.371015000000     0.475480000000     0.093915000000     0          
C1       C      0.352205000000     0.465040000000     0.102205000000     0          
C2       C      0.340560000000     0.441890000000     0.090560000000     0          
C3       C      0.318925000000     0.431075000000     0.101380000000     0          
H1       H      0.311866500000     0.438133500000     0.115505000000     0          
O1       O      0.371015000000     0.024520000000     0.406085000000     0          
C1       C      0.352205000000     0.034960000000     0.397795000000     0          
C2       C      0.340560000000     0.058110000000     0.409440000000     0          
C3       C      0.318925000000     0.068925000000     0.398620000000     0          
H1       H      0.311866500000     0.061866500000     0.384495000000     0          
O1       O      0.475480000000     0.371015000000     0.406085000000     0          
C1       C      0.465040000000     0.352205000000     0.397795000000     0          
C2       C      0.441890000000     0.340560000000     0.409440000000     0          
C3       C      0.431075000000     0.318925000000     0.398620000000     0          
H1       H      0.438133500000     0.311866500000     0.384495000000     0          
O1       O      0.128985000000     0.475480000000     0.406085000000     0          
C1       C      0.147795000000     0.465040000000     0.397795000000     0          
C2       C      0.159440000000     0.441890000000     0.409440000000     0          
C3       C      0.181075000000     0.431075000000     0.398620000000     0          
H1       H      0.188133500000     0.438133500000     0.384495000000     0          
O1       O      0.024520000000     0.128985000000     0.406085000000     0          
C1       C      0.034960000000     0.147795000000     0.397795000000     0          
C2       C      0.058110000000     0.159440000000     0.409440000000     0          
C3       C      0.068925000000     0.181075000000     0.398620000000     0          
H1       H      0.061866500000     0.188133500000     0.384495000000     0          
O1       O      0.128985000000     0.024520000000     0.093915000000     0          
C1       C      0.147795000000     0.034960000000     0.102205000000     0          
C2       C      0.159440000000     0.058110000000     0.090560000000     0          
C3       C      0.181075000000     0.068925000000     0.101380000000     0          
H1       H      0.188133500000     0.061866500000     0.115505000000     0          
O1       O      0.475480000000     0.128985000000     0.093915000000     0          
C1       C      0.465040000000     0.147795000000     0.102205000000     0          
C2       C      0.441890000000     0.159440000000     0.090560000000     0          
C3       C      0.431075000000     0.181075000000     0.101380000000     0          
H1       H      0.438133500000     0.188133500000     0.115505000000     0          
O1       O      0.024520000000     0.371015000000     0.093915000000     0          
C1       C      0.034960000000     0.352205000000     0.102205000000     0          
C2       C      0.058110000000     0.340560000000     0.090560000000     0          
C3       C      0.068925000000     0.318925000000     0.101380000000     0          
H1       H      0.061866500000     0.311866500000     0.115505000000     0          
O1       O      0.406085000000     0.128985000000     0.024520000000     0          
C1       C      0.397795000000     0.147795000000     0.034960000000     0          
C2       C      0.409440000000     0.159440000000     0.058110000000     0          
C3       C      0.398620000000     0.181075000000     0.068925000000     0          
H1       H      0.384495000000     0.188133500000     0.061866500000     0          
O1       O      0.371015000000     0.406085000000     0.024520000000     0          
C1       C      0.352205000000     0.397795000000     0.034960000000     0          
C2       C      0.340560000000     0.409440000000     0.058110000000     0          
C3       C      0.318925000000     0.398620000000     0.068925000000     0          
H1       H      0.311866500000     0.384495000000     0.061866500000     0          
O1       O      0.093915000000     0.371015000000     0.024520000000     0          
C1       C      0.102205000000     0.352205000000     0.034960000000     0          
C2       C      0.090560000000     0.340560000000     0.058110000000     0          
C3       C      0.101380000000     0.318925000000     0.068925000000     0          
H1       H      0.115505000000     0.311866500000     0.061866500000     0          
O1       O      0.128985000000     0.093915000000     0.024520000000     0          
C1       C      0.147795000000     0.102205000000     0.034960000000     0          
C2       C      0.159440000000     0.090560000000     0.058110000000     0          
C3       C      0.181075000000     0.101380000000     0.068925000000     0          
H1       H      0.188133500000     0.115505000000     0.061866500000     0          
O1       O      0.406085000000     0.371015000000     0.475480000000     0          
C1       C      0.397795000000     0.352205000000     0.465040000000     0          
C2       C      0.409440000000     0.340560000000     0.441890000000     0          
C3       C      0.398620000000     0.318925000000     0.431075000000     0          
H1       H      0.384495000000     0.311866500000     0.438133500000     0          
O1       O      0.128985000000     0.406085000000     0.475480000000     0          
C1       C      0.147795000000     0.397795000000     0.465040000000     0          
C2       C      0.159440000000     0.409440000000     0.441890000000     0          
C3       C      0.181075000000     0.398620000000     0.431075000000     0          
H1       H      0.188133500000     0.384495000000     0.438133500000     0          
O1       O      0.093915000000     0.128985000000     0.475480000000     0          
C1       C      0.102205000000     0.147795000000     0.465040000000     0          
C2       C      0.090560000000     0.159440000000     0.441890000000     0          
C3       C      0.101380000000     0.181075000000     0.431075000000     0          
H1       H      0.115505000000     0.188133500000     0.438133500000     0          
O1       O      0.371015000000     0.093915000000     0.475480000000     0          
C1       C      0.352205000000     0.102205000000     0.465040000000     0          
C2       C      0.340560000000     0.090560000000     0.441890000000     0          
C3       C      0.318925000000     0.101380000000     0.431075000000     0          
H1       H      0.311866500000     0.115505000000     0.438133500000     0          
O1       O      0.024520000000     0.406085000000     0.128985000000     0          
C1       C      0.034960000000     0.397795000000     0.147795000000     0          
C2       C      0.058110000000     0.409440000000     0.159440000000     0          
C3       C      0.068925000000     0.398620000000     0.181075000000     0          
H1       H      0.061866500000     0.384495000000     0.188133500000     0          
O1       O      0.093915000000     0.024520000000     0.128985000000     0          
C1       C      0.102205000000     0.034960000000     0.147795000000     0          
C2       C      0.090560000000     0.058110000000     0.159440000000     0          
C3       C      0.101380000000     0.068925000000     0.181075000000     0          
H1       H      0.115505000000     0.061866500000     0.188133500000     0          
O1       O      0.475480000000     0.093915000000     0.128985000000     0          
C1       C      0.465040000000     0.102205000000     0.147795000000     0          
C2       C      0.441890000000     0.090560000000     0.159440000000     0          
C3       C      0.431075000000     0.101380000000     0.181075000000     0          
H1       H      0.438133500000     0.115505000000     0.188133500000     0          
O1       O      0.406085000000     0.475480000000     0.128985000000     0          
C1       C      0.397795000000     0.465040000000     0.147795000000     0          
C2       C      0.409440000000     0.441890000000     0.159440000000     0          
C3       C      0.398620000000     0.431075000000     0.181075000000     0          
H1       H      0.384495000000     0.438133500000     0.188133500000     0          
O1       O      0.024520000000     0.093915000000     0.371015000000     0          
C1       C      0.034960000000     0.102205000000     0.352205000000     0          
C2       C      0.058110000000     0.090560000000     0.340560000000     0          
C3       C      0.068925000000     0.101380000000     0.318925000000     0          
H1       H      0.061866500000     0.115505000000     0.311866500000     0          
O1       O      0.406085000000     0.024520000000     0.371015000000     0          
C1       C      0.397795000000     0.034960000000     0.352205000000     0          
C2       C      0.409440000000     0.058110000000     0.340560000000     0          
C3       C      0.398620000000     0.068925000000     0.318925000000     0          
H1       H      0.384495000000     0.061866500000     0.311866500000     0          
O1       O      0.475480000000     0.406085000000     0.371015000000     0          
C1       C      0.465040000000     0.397795000000     0.352205000000     0          
C2       C      0.441890000000     0.409440000000     0.340560000000     0          
C3       C      0.431075000000     0.398620000000     0.318925000000     0          
H1       H      0.438133500000     0.384495000000     0.311866500000     0          
O1       O      0.093915000000     0.475480000000     0.371015000000     0          
C1       C      0.102205000000     0.465040000000     0.352205000000     0          
C2       C      0.090560000000     0.441890000000     0.340560000000     0          
C3       C      0.101380000000     0.431075000000     0.318925000000     0          
H1       H      0.115505000000     0.438133500000     0.311866500000     0          
O1       O      0.128985000000     0.024520000000     0.406085000000     0          
C1       C      0.147795000000     0.034960000000     0.397795000000     0          
C2       C      0.159440000000     0.058110000000     0.409440000000     0          
C3       C      0.181075000000     0.068925000000     0.398620000000     0          
H1       H      0.188133500000     0.061866500000     0.384495000000     0          
O1       O      0.128985000000     0.475480000000     0.093915000000     0          
C1       C      0.147795000000     0.465040000000     0.102205000000     0          
C2       C      0.159440000000     0.441890000000     0.090560000000     0          
C3       C      0.181075000000     0.431075000000     0.101380000000     0          
H1       H      0.188133500000     0.438133500000     0.115505000000     0          
O1       O      0.024520000000     0.128985000000     0.093915000000     0          
C1       C      0.034960000000     0.147795000000     0.102205000000     0          
C2       C      0.058110000000     0.159440000000     0.090560000000     0          
C3       C      0.068925000000     0.181075000000     0.101380000000     0          
H1       H      0.061866500000     0.188133500000     0.115505000000     0          
O1       O      0.371015000000     0.024520000000     0.093915000000     0          
C1       C      0.352205000000     0.034960000000     0.102205000000     0          
C2       C      0.340560000000     0.058110000000     0.090560000000     0          
C3       C      0.318925000000     0.068925000000     0.101380000000     0          
H1       H      0.311866500000     0.061866500000     0.115505000000     0          
O1       O      0.475480000000     0.371015000000     0.093915000000     0          
C1       C      0.465040000000     0.352205000000     0.102205000000     0          
C2       C      0.441890000000     0.340560000000     0.090560000000     0          
C3       C      0.431075000000     0.318925000000     0.101380000000     0          
H1       H      0.438133500000     0.311866500000     0.115505000000     0          
O1       O      0.371015000000     0.475480000000     0.406085000000     0          
C1       C      0.352205000000     0.465040000000     0.397795000000     0          
C2       C      0.340560000000     0.441890000000     0.409440000000     0          
C3       C      0.318925000000     0.431075000000     0.398620000000     0          
H1       H      0.311866500000     0.438133500000     0.384495000000     0          
O1       O      0.024520000000     0.371015000000     0.406085000000     0          
C1       C      0.034960000000     0.352205000000     0.397795000000     0          
C2       C      0.058110000000     0.340560000000     0.409440000000     0          
C3       C      0.068925000000     0.318925000000     0.398620000000     0          
H1       H      0.061866500000     0.311866500000     0.384495000000     0          
O1       O      0.475480000000     0.128985000000     0.406085000000     0          
C1       C      0.465040000000     0.147795000000     0.397795000000     0          
C2       C      0.441890000000     0.159440000000     0.409440000000     0          
C3       C      0.431075000000     0.181075000000     0.398620000000     0          
H1       H      0.438133500000     0.188133500000     0.384495000000     0          
Cu1      Cu     0.108060000000     0.141940000000     0.250000000000     0          
O1       O      0.093915000000     0.121015000000     0.225480000000     0          
O2       O      0.078400000000     0.171600000000     0.250000000000     0          
C1       C      0.102205000000     0.102205000000     0.215040000000     0          
C2       C      0.090560000000     0.090560000000     0.191890000000     0          
C1s      C      0.079350000000     0.329350000000     0.329350000000     0          
C2s      C      0.190450000000     0.000000000000     0.440450000000     0          
Cu1      Cu     0.108060000000     0.358060000000     0.250000000000     0          
O1       O      0.128985000000     0.343915000000     0.225480000000     0          
O2       O      0.078400000000     0.328400000000     0.250000000000     0          
C1       C      0.147795000000     0.352205000000     0.215040000000     0          
C2       C      0.159440000000     0.340560000000     0.191890000000     0          
C3       C      0.181075000000     0.351380000000     0.181075000000     0          
H1       H      0.188133500000     0.365505000000     0.188133500000     0          
C1s      C      0.420650000000     0.329350000000     0.329350000000     0          
C2s      C      0.250000000000     0.440450000000     0.440450000000     0          
Cu1      Cu     0.391940000000     0.358060000000     0.250000000000     0          
O1       O      0.406085000000     0.378985000000     0.225480000000     0          
O2       O      0.421600000000     0.328400000000     0.250000000000     0          
C1       C      0.397795000000     0.397795000000     0.215040000000     0          
C2       C      0.409440000000     0.409440000000     0.191890000000     0          
C1s      C      0.420650000000     0.170650000000     0.329350000000     0          
C2s      C      0.309550000000     0.000000000000     0.440450000000     0          
Cu1      Cu     0.391940000000     0.141940000000     0.250000000000     0          
O1       O      0.371015000000     0.156085000000     0.225480000000     0          
O2       O      0.421600000000     0.171600000000     0.250000000000     0          
C1       C      0.352205000000     0.147795000000     0.215040000000     0          
C2       C      0.340560000000     0.159440000000     0.191890000000     0          
C3       C      0.318925000000     0.148620000000     0.181075000000     0          
H1       H      0.311866500000     0.134495000000     0.188133500000     0          
C1s      C      0.079350000000     0.170650000000     0.329350000000     0          
C2s      C      0.250000000000     0.059550000000     0.440450000000     0          
O1       O      0.093915000000     0.378985000000     0.274520000000     0          
C1       C      0.102205000000     0.397795000000     0.284960000000     0          
C2       C      0.090560000000     0.409440000000     0.308110000000     0          
C1s      C      0.079350000000     0.170650000000     0.170650000000     0          
C2s      C      0.190450000000     0.000000000000     0.059550000000     0          
O1       O      0.371015000000     0.343915000000     0.274520000000     0          
C1       C      0.352205000000     0.352205000000     0.284960000000     0          
C2       C      0.340560000000     0.340560000000     0.308110000000     0          
C3       C      0.318925000000     0.351380000000     0.318925000000     0          
H1       H      0.311866500000     0.365505000000     0.311866500000     0          
C1s      C      0.079350000000     0.329350000000     0.170650000000     0          
C2s      C      0.250000000000     0.440450000000     0.059550000000     0          
O1       O      0.406085000000     0.121015000000     0.274520000000     0          
C1       C      0.397795000000     0.102205000000     0.284960000000     0          
C2       C      0.409440000000     0.090560000000     0.308110000000     0          
C1s      C      0.420650000000     0.329350000000     0.170650000000     0          
C2s      C      0.309550000000     0.000000000000     0.059550000000     0          
O1       O      0.128985000000     0.156085000000     0.274520000000     0          
C1       C      0.147795000000     0.147795000000     0.284960000000     0          
C2       C      0.159440000000     0.159440000000     0.308110000000     0          
C3       C      0.181075000000     0.148620000000     0.318925000000     0          
H1       H      0.188133500000     0.134495000000     0.311866500000     0          
C1s      C      0.420650000000     0.170650000000     0.170650000000     0          
C2s      C      0.250000000000     0.059550000000     0.059550000000     0          
Cu1      Cu     0.000000000000     0.358060000000     0.141940000000     0          
O1       O      0.475480000000     0.343915000000     0.121015000000     0          
O2       O      0.000000000000     0.328400000000     0.171600000000     0          
C3       C      0.431075000000     0.351380000000     0.068925000000     0          
H1       H      0.438133500000     0.365505000000     0.061866500000     0          
C2s      C      0.190450000000     0.440450000000     0.000000000000     0          
Cu1      Cu     0.391940000000     0.250000000000     0.141940000000     0          
O1       O      0.406085000000     0.225480000000     0.121015000000     0          
O2       O      0.421600000000     0.250000000000     0.171600000000     0          
C1       C      0.397795000000     0.215040000000     0.102205000000     0          
C2       C      0.409440000000     0.191890000000     0.090560000000     0          
C2s      C      0.309550000000     0.440450000000     0.000000000000     0          
Cu1      Cu     0.000000000000     0.141940000000     0.141940000000     0          
O1       O      0.024520000000     0.156085000000     0.121015000000     0          
O2       O      0.000000000000     0.171600000000     0.171600000000     0          
C3       C      0.068925000000     0.148620000000     0.068925000000     0          
H1       H      0.061866500000     0.134495000000     0.061866500000     0          
C2s      C      0.309550000000     0.059550000000     0.000000000000     0          
Cu1      Cu     0.108060000000     0.250000000000     0.141940000000     0          
O1       O      0.093915000000     0.274520000000     0.121015000000     0          
O2       O      0.078400000000     0.250000000000     0.171600000000     0          
C1       C      0.102205000000     0.284960000000     0.102205000000     0          
C2       C      0.090560000000     0.308110000000     0.090560000000     0          
C2s      C      0.190450000000     0.059550000000     0.000000000000     0          
Cu1      Cu     0.000000000000     0.141940000000     0.358060000000     0          
O1       O      0.475480000000     0.156085000000     0.378985000000     0          
O2       O      0.000000000000     0.171600000000     0.328400000000     0          
C3       C      0.431075000000     0.148620000000     0.431075000000     0          
H1       H      0.438133500000     0.134495000000     0.438133500000     0          
Cu1      Cu     0.108060000000     0.250000000000     0.358060000000     0          
O1       O      0.093915000000     0.225480000000     0.378985000000     0          
O2       O      0.078400000000     0.250000000000     0.328400000000     0          
C1       C      0.102205000000     0.215040000000     0.397795000000     0          
C2       C      0.090560000000     0.191890000000     0.409440000000     0          
Cu1      Cu     0.000000000000     0.358060000000     0.358060000000     0          
O1       O      0.024520000000     0.343915000000     0.378985000000     0          
O2       O      0.000000000000     0.328400000000     0.328400000000     0          
C3       C      0.068925000000     0.351380000000     0.431075000000     0          
H1       H      0.061866500000     0.365505000000     0.438133500000     0          
Cu1      Cu     0.391940000000     0.250000000000     0.358060000000     0          
O1       O      0.406085000000     0.274520000000     0.378985000000     0          
O2       O      0.421600000000     0.250000000000     0.328400000000     0          
C1       C      0.397795000000     0.284960000000     0.397795000000     0          
C2       C      0.409440000000     0.308110000000     0.409440000000     0          
O1       O      0.371015000000     0.225480000000     0.343915000000     0          
C1       C      0.352205000000     0.215040000000     0.352205000000     0          
C2       C      0.340560000000     0.191890000000     0.340560000000     0          
C3       C      0.318925000000     0.181075000000     0.351380000000     0          
H1       H      0.311866500000     0.188133500000     0.365505000000     0          
O1       O      0.371015000000     0.274520000000     0.156085000000     0          
C1       C      0.352205000000     0.284960000000     0.147795000000     0          
C2       C      0.340560000000     0.308110000000     0.159440000000     0          
C3       C      0.318925000000     0.318925000000     0.148620000000     0          
H1       H      0.311866500000     0.311866500000     0.134495000000     0          
O1       O      0.475480000000     0.121015000000     0.156085000000     0          
C3       C      0.431075000000     0.068925000000     0.148620000000     0          
H1       H      0.438133500000     0.061866500000     0.134495000000     0          
O1       O      0.128985000000     0.225480000000     0.156085000000     0          
C1       C      0.147795000000     0.215040000000     0.147795000000     0          
C2       C      0.159440000000     0.191890000000     0.159440000000     0          
C3       C      0.181075000000     0.181075000000     0.148620000000     0          
H1       H      0.188133500000     0.188133500000     0.134495000000     0          
O1       O      0.024520000000     0.378985000000     0.156085000000     0          
C3       C      0.068925000000     0.431075000000     0.148620000000     0          
H1       H      0.061866500000     0.438133500000     0.134495000000     0          
O1       O      0.128985000000     0.274520000000     0.343915000000     0          
C1       C      0.147795000000     0.284960000000     0.352205000000     0          
C2       C      0.159440000000     0.308110000000     0.340560000000     0          
C3       C      0.181075000000     0.318925000000     0.351380000000     0          
H1       H      0.188133500000     0.311866500000     0.365505000000     0          
O1       O      0.475480000000     0.378985000000     0.343915000000     0          
C3       C      0.431075000000     0.431075000000     0.351380000000     0          
H1       H      0.438133500000     0.438133500000     0.365505000000     0          
O1       O      0.024520000000     0.121015000000     0.343915000000     0          
C3       C      0.068925000000     0.068925000000     0.351380000000     0          
H1       H      0.061866500000     0.061866500000     0.365505000000     0          
O1       O      0.406085000000     0.378985000000     0.274520000000     0          
C1       C      0.397795000000     0.397795000000     0.284960000000     0          
C2       C      0.409440000000     0.409440000000     0.308110000000     0          
O1       O      0.371015000000     0.156085000000     0.274520000000     0          
C1       C      0.352205000000     0.147795000000     0.284960000000     0          
C2       C      0.340560000000     0.159440000000     0.308110000000     0          
C3       C      0.318925000000     0.148620000000     0.318925000000     0          
H1       H      0.311866500000     0.134495000000     0.311866500000     0          
O1       O      0.093915000000     0.121015000000     0.274520000000     0          
C1       C      0.102205000000     0.102205000000     0.284960000000     0          
C2       C      0.090560000000     0.090560000000     0.308110000000     0          
O1       O      0.128985000000     0.343915000000     0.274520000000     0          
C1       C      0.147795000000     0.352205000000     0.284960000000     0          
C2       C      0.159440000000     0.340560000000     0.308110000000     0          
C3       C      0.181075000000     0.351380000000     0.318925000000     0          
H1       H      0.188133500000     0.365505000000     0.311866500000     0          
O1       O      0.406085000000     0.121015000000     0.225480000000     0          
C1       C      0.397795000000     0.102205000000     0.215040000000     0          
C2       C      0.409440000000     0.090560000000     0.191890000000     0          
O1       O      0.128985000000     0.156085000000     0.225480000000     0          
C1       C      0.147795000000     0.147795000000     0.215040000000     0          
C2       C      0.159440000000     0.159440000000     0.191890000000     0          
C3       C      0.181075000000     0.148620000000     0.181075000000     0          
H1       H      0.188133500000     0.134495000000     0.188133500000     0          
O1       O      0.093915000000     0.378985000000     0.225480000000     0          
C1       C      0.102205000000     0.397795000000     0.215040000000     0          
C2       C      0.090560000000     0.409440000000     0.191890000000     0          
O1       O      0.371015000000     0.343915000000     0.225480000000     0          
C1       C      0.352205000000     0.352205000000     0.215040000000     0          
C2       C      0.340560000000     0.340560000000     0.191890000000     0          
C3       C      0.318925000000     0.351380000000     0.181075000000     0          
H1       H      0.311866500000     0.365505000000     0.188133500000     0          
O1       O      0.024520000000     0.156085000000     0.378985000000     0          
C3       C      0.068925000000     0.148620000000     0.431075000000     0          
H1       H      0.061866500000     0.134495000000     0.438133500000     0          
O1       O      0.093915000000     0.274520000000     0.378985000000     0          
C1       C      0.102205000000     0.284960000000     0.397795000000     0          
C2       C      0.090560000000     0.308110000000     0.409440000000     0          
O1       O      0.475480000000     0.343915000000     0.378985000000     0          
C3       C      0.431075000000     0.351380000000     0.431075000000     0          
H1       H      0.438133500000     0.365505000000     0.438133500000     0          
O1       O      0.406085000000     0.225480000000     0.378985000000     0          
C1       C      0.397795000000     0.215040000000     0.397795000000     0          
C2       C      0.409440000000     0.191890000000     0.409440000000     0          
O1       O      0.024520000000     0.343915000000     0.121015000000     0          
C3       C      0.068925000000     0.351380000000     0.068925000000     0          
H1       H      0.061866500000     0.365505000000     0.061866500000     0          
O1       O      0.406085000000     0.274520000000     0.121015000000     0          
C1       C      0.397795000000     0.284960000000     0.102205000000     0          
C2       C      0.409440000000     0.308110000000     0.090560000000     0          
O1       O      0.475480000000     0.156085000000     0.121015000000     0          
C3       C      0.431075000000     0.148620000000     0.068925000000     0          
H1       H      0.438133500000     0.134495000000     0.061866500000     0          
O1       O      0.093915000000     0.225480000000     0.121015000000     0          
C1       C      0.102205000000     0.215040000000     0.102205000000     0          
C2       C      0.090560000000     0.191890000000     0.090560000000     0          
O1       O      0.128985000000     0.274520000000     0.156085000000     0          
C1       C      0.147795000000     0.284960000000     0.147795000000     0          
C2       C      0.159440000000     0.308110000000     0.159440000000     0          
C3       C      0.181075000000     0.318925000000     0.148620000000     0          
H1       H      0.188133500000     0.311866500000     0.134495000000     0          
O1       O      0.128985000000     0.225480000000     0.343915000000     0          
C1       C      0.147795000000     0.215040000000     0.352205000000     0          
C2       C      0.159440000000     0.191890000000     0.340560000000     0          
C3       C      0.181075000000     0.181075000000     0.351380000000     0          
H1       H      0.188133500000     0.188133500000     0.365505000000     0          
O1       O      0.024520000000     0.378985000000     0.343915000000     0          
C3       C      0.068925000000     0.431075000000     0.351380000000     0          
H1       H      0.061866500000     0.438133500000     0.365505000000     0          
O1       O      0.371015000000     0.274520000000     0.343915000000     0          
C1       C      0.352205000000     0.284960000000     0.352205000000     0          
C2       C      0.340560000000     0.308110000000     0.340560000000     0          
C3       C      0.318925000000     0.318925000000     0.351380000000     0          
H1       H      0.311866500000     0.311866500000     0.365505000000     0          
O1       O      0.475480000000     0.121015000000     0.343915000000     0          
C3       C      0.431075000000     0.068925000000     0.351380000000     0          
H1       H      0.438133500000     0.061866500000     0.365505000000     0          
O1       O      0.371015000000     0.225480000000     0.156085000000     0          
C1       C      0.352205000000     0.215040000000     0.147795000000     0          
C2       C      0.340560000000     0.191890000000     0.159440000000     0          
C3       C      0.318925000000     0.181075000000     0.148620000000     0          
H1       H      0.311866500000     0.188133500000     0.134495000000     0          
O1       O      0.024520000000     0.121015000000     0.156085000000     0          
C3       C      0.068925000000     0.068925000000     0.148620000000     0          
H1       H      0.061866500000     0.061866500000     0.134495000000     0          
O1       O      0.475480000000     0.378985000000     0.156085000000     0          
C3       C      0.431075000000     0.431075000000     0.148620000000     0          
H1       H      0.438133500000     0.438133500000     0.134495000000     0          
Cu1      Cu     0.358060000000     0.391940000000     0.250000000000     0          
O1       O      0.343915000000     0.371015000000     0.225480000000     0          
O2       O      0.328400000000     0.421600000000     0.250000000000     0          
C3       C      0.351380000000     0.318925000000     0.181075000000     0          
H1       H      0.365505000000     0.311866500000     0.188133500000     0          
C1s      C      0.329350000000     0.079350000000     0.329350000000     0          
C2s      C      0.440450000000     0.250000000000     0.440450000000     0          
Cu1      Cu     0.358060000000     0.108060000000     0.250000000000     0          
O1       O      0.378985000000     0.093915000000     0.225480000000     0          
O2       O      0.328400000000     0.078400000000     0.250000000000     0          
C1s      C      0.170650000000     0.079350000000     0.329350000000     0          
C2s      C      0.000000000000     0.190450000000     0.440450000000     0          
Cu1      Cu     0.141940000000     0.108060000000     0.250000000000     0          
O1       O      0.156085000000     0.128985000000     0.225480000000     0          
O2       O      0.171600000000     0.078400000000     0.250000000000     0          
C3       C      0.148620000000     0.181075000000     0.181075000000     0          
H1       H      0.134495000000     0.188133500000     0.188133500000     0          
C1s      C      0.170650000000     0.420650000000     0.329350000000     0          
C2s      C      0.059550000000     0.250000000000     0.440450000000     0          
Cu1      Cu     0.141940000000     0.391940000000     0.250000000000     0          
O1       O      0.121015000000     0.406085000000     0.225480000000     0          
O2       O      0.171600000000     0.421600000000     0.250000000000     0          
C1s      C      0.329350000000     0.420650000000     0.329350000000     0          
C2s      C      0.000000000000     0.309550000000     0.440450000000     0          
O1       O      0.343915000000     0.128985000000     0.274520000000     0          
C3       C      0.351380000000     0.181075000000     0.318925000000     0          
H1       H      0.365505000000     0.188133500000     0.311866500000     0          
C1s      C      0.329350000000     0.420650000000     0.170650000000     0          
C2s      C      0.440450000000     0.250000000000     0.059550000000     0          
O1       O      0.121015000000     0.093915000000     0.274520000000     0          
C1s      C      0.329350000000     0.079350000000     0.170650000000     0          
C2s      C      0.000000000000     0.190450000000     0.059550000000     0          
O1       O      0.156085000000     0.371015000000     0.274520000000     0          
C3       C      0.148620000000     0.318925000000     0.318925000000     0          
H1       H      0.134495000000     0.311866500000     0.311866500000     0          
C1s      C      0.170650000000     0.079350000000     0.170650000000     0          
C2s      C      0.059550000000     0.250000000000     0.059550000000     0          
O1       O      0.378985000000     0.406085000000     0.274520000000     0          
C1s      C      0.170650000000     0.420650000000     0.170650000000     0          
C2s      C      0.000000000000     0.309550000000     0.059550000000     0          
Cu1      Cu     0.250000000000     0.108060000000     0.141940000000     0          
O1       O      0.225480000000     0.093915000000     0.121015000000     0          
O2       O      0.250000000000     0.078400000000     0.171600000000     0          
C1       C      0.215040000000     0.102205000000     0.102205000000     0          
C2       C      0.191890000000     0.090560000000     0.090560000000     0          
C2s      C      0.440450000000     0.190450000000     0.000000000000     0          
Cu1      Cu     0.141940000000     0.000000000000     0.141940000000     0          
O1       O      0.156085000000     0.475480000000     0.121015000000     0          
O2       O      0.171600000000     0.000000000000     0.171600000000     0          
C3       C      0.148620000000     0.431075000000     0.068925000000     0          
H1       H      0.134495000000     0.438133500000     0.061866500000     0          
C2s      C      0.059550000000     0.190450000000     0.000000000000     0          
Cu1      Cu     0.250000000000     0.391940000000     0.141940000000     0          
O1       O      0.274520000000     0.406085000000     0.121015000000     0          
O2       O      0.250000000000     0.421600000000     0.171600000000     0          
C1       C      0.284960000000     0.397795000000     0.102205000000     0          
C2       C      0.308110000000     0.409440000000     0.090560000000     0          
C2s      C      0.059550000000     0.309550000000     0.000000000000     0          
Cu1      Cu     0.358060000000     0.000000000000     0.141940000000     0          
O1       O      0.343915000000     0.024520000000     0.121015000000     0          
O2       O      0.328400000000     0.000000000000     0.171600000000     0          
C3       C      0.351380000000     0.068925000000     0.068925000000     0          
H1       H      0.365505000000     0.061866500000     0.061866500000     0          
C2s      C      0.440450000000     0.309550000000     0.000000000000     0          
Cu1      Cu     0.250000000000     0.391940000000     0.358060000000     0          
O1       O      0.225480000000     0.406085000000     0.378985000000     0          
O2       O      0.250000000000     0.421600000000     0.328400000000     0          
C1       C      0.215040000000     0.397795000000     0.397795000000     0          
C2       C      0.191890000000     0.409440000000     0.409440000000     0          
Cu1      Cu     0.358060000000     0.000000000000     0.358060000000     0          
O1       O      0.343915000000     0.475480000000     0.378985000000     0          
O2       O      0.328400000000     0.000000000000     0.328400000000     0          
C3       C      0.351380000000     0.431075000000     0.431075000000     0          
H1       H      0.365505000000     0.438133500000     0.438133500000     0          
Cu1      Cu     0.250000000000     0.108060000000     0.358060000000     0          
O1       O      0.274520000000     0.093915000000     0.378985000000     0          
O2       O      0.250000000000     0.078400000000     0.328400000000     0          
C1       C      0.284960000000     0.102205000000     0.397795000000     0          
C2       C      0.308110000000     0.090560000000     0.409440000000     0          
Cu1      Cu     0.141940000000     0.000000000000     0.358060000000     0          
O1       O      0.156085000000     0.024520000000     0.378985000000     0          
O2       O      0.171600000000     0.000000000000     0.328400000000     0          
C3       C      0.148620000000     0.068925000000     0.431075000000     0          
H1       H      0.134495000000     0.061866500000     0.438133500000     0          
O1       O      0.121015000000     0.475480000000     0.343915000000     0          
O1       O      0.121015000000     0.024520000000     0.156085000000     0          
O1       O      0.225480000000     0.371015000000     0.156085000000     0          
C1       C      0.215040000000     0.352205000000     0.147795000000     0          
C2       C      0.191890000000     0.340560000000     0.159440000000     0          
O1       O      0.378985000000     0.475480000000     0.156085000000     0          
O1       O      0.274520000000     0.128985000000     0.156085000000     0          
C1       C      0.284960000000     0.147795000000     0.147795000000     0          
C2       C      0.308110000000     0.159440000000     0.159440000000     0          
O1       O      0.378985000000     0.024520000000     0.343915000000     0          
O1       O      0.225480000000     0.128985000000     0.343915000000     0          
C1       C      0.215040000000     0.147795000000     0.352205000000     0          
C2       C      0.191890000000     0.159440000000     0.340560000000     0          
O1       O      0.274520000000     0.371015000000     0.343915000000     0          
C1       C      0.284960000000     0.352205000000     0.352205000000     0          
C2       C      0.308110000000     0.340560000000     0.340560000000     0          
O1       O      0.156085000000     0.128985000000     0.274520000000     0          
C3       C      0.148620000000     0.181075000000     0.318925000000     0          
H1       H      0.134495000000     0.188133500000     0.311866500000     0          
O1       O      0.121015000000     0.406085000000     0.274520000000     0          
O1       O      0.343915000000     0.371015000000     0.274520000000     0          
C3       C      0.351380000000     0.318925000000     0.318925000000     0          
H1       H      0.365505000000     0.311866500000     0.311866500000     0          
O1       O      0.378985000000     0.093915000000     0.274520000000     0          
O1       O      0.156085000000     0.371015000000     0.225480000000     0          
C3       C      0.148620000000     0.318925000000     0.181075000000     0          
H1       H      0.134495000000     0.311866500000     0.188133500000     0          
O1       O      0.378985000000     0.406085000000     0.225480000000     0          
O1       O      0.343915000000     0.128985000000     0.225480000000     0          
C3       C      0.351380000000     0.181075000000     0.181075000000     0          
H1       H      0.365505000000     0.188133500000     0.188133500000     0          
O1       O      0.121015000000     0.093915000000     0.225480000000     0          
O1       O      0.274520000000     0.406085000000     0.378985000000     0          
C1       C      0.284960000000     0.397795000000     0.397795000000     0          
C2       C      0.308110000000     0.409440000000     0.409440000000     0          
O1       O      0.343915000000     0.024520000000     0.378985000000     0          
C3       C      0.351380000000     0.068925000000     0.431075000000     0          
H1       H      0.365505000000     0.061866500000     0.438133500000     0          
O1       O      0.225480000000     0.093915000000     0.378985000000     0          
C1       C      0.215040000000     0.102205000000     0.397795000000     0          
C2       C      0.191890000000     0.090560000000     0.409440000000     0          
O1       O      0.156085000000     0.475480000000     0.378985000000     0          
C3       C      0.148620000000     0.431075000000     0.431075000000     0          
H1       H      0.134495000000     0.438133500000     0.438133500000     0          
O1       O      0.274520000000     0.093915000000     0.121015000000     0          
C1       C      0.284960000000     0.102205000000     0.102205000000     0          
C2       C      0.308110000000     0.090560000000     0.090560000000     0          
O1       O      0.156085000000     0.024520000000     0.121015000000     0          
C3       C      0.148620000000     0.068925000000     0.068925000000     0          
H1       H      0.134495000000     0.061866500000     0.061866500000     0          
O1       O      0.225480000000     0.406085000000     0.121015000000     0          
C1       C      0.215040000000     0.397795000000     0.102205000000     0          
C2       C      0.191890000000     0.409440000000     0.090560000000     0          
O1       O      0.343915000000     0.475480000000     0.121015000000     0          
C3       C      0.351380000000     0.431075000000     0.068925000000     0          
H1       H      0.365505000000     0.438133500000     0.061866500000     0          
O1       O      0.378985000000     0.024520000000     0.156085000000     0          
O1       O      0.378985000000     0.475480000000     0.343915000000     0          
O1       O      0.274520000000     0.128985000000     0.343915000000     0          
C1       C      0.284960000000     0.147795000000     0.352205000000     0          
C2       C      0.308110000000     0.159440000000     0.340560000000     0          
O1       O      0.121015000000     0.024520000000     0.343915000000     0          
O1       O      0.225480000000     0.371015000000     0.343915000000     0          
C1       C      0.215040000000     0.352205000000     0.352205000000     0          
C2       C      0.191890000000     0.340560000000     0.340560000000     0          
O1       O      0.121015000000     0.475480000000     0.156085000000     0          
O1       O      0.274520000000     0.371015000000     0.156085000000     0          
C1       C      0.284960000000     0.352205000000     0.147795000000     0          
C2       C      0.308110000000     0.340560000000     0.159440000000     0          
O1       O      0.225480000000     0.128985000000     0.156085000000     0          
C1       C      0.215040000000     0.147795000000     0.147795000000     0          
C2       C      0.191890000000     0.159440000000     0.159440000000     0          
Cu1      Cu     0.358060000000     0.141940000000     0.000000000000     0          
O1       O      0.343915000000     0.121015000000     0.475480000000     0          
O2       O      0.328400000000     0.171600000000     0.000000000000     0          
C1s      C      0.329350000000     0.329350000000     0.079350000000     0          
C2s      C      0.440450000000     0.000000000000     0.190450000000     0          
Cu1      Cu     0.358060000000     0.358060000000     0.000000000000     0          
O1       O      0.378985000000     0.343915000000     0.475480000000     0          
O2       O      0.328400000000     0.328400000000     0.000000000000     0          
C1s      C      0.170650000000     0.329350000000     0.079350000000     0          
C2s      C      0.000000000000     0.440450000000     0.190450000000     0          
Cu1      Cu     0.141940000000     0.358060000000     0.000000000000     0          
O1       O      0.156085000000     0.378985000000     0.475480000000     0          
O2       O      0.171600000000     0.328400000000     0.000000000000     0          
C1s      C      0.170650000000     0.170650000000     0.079350000000     0          
C2s      C      0.059550000000     0.000000000000     0.190450000000     0          
Cu1      Cu     0.141940000000     0.141940000000     0.000000000000     0          
O1       O      0.121015000000     0.156085000000     0.475480000000     0          
O2       O      0.171600000000     0.171600000000     0.000000000000     0          
C1s      C      0.329350000000     0.170650000000     0.079350000000     0          
C2s      C      0.000000000000     0.059550000000     0.190450000000     0          
O1       O      0.343915000000     0.378985000000     0.024520000000     0          
C1s      C      0.329350000000     0.170650000000     0.420650000000     0          
C2s      C      0.440450000000     0.000000000000     0.309550000000     0          
O1       O      0.121015000000     0.343915000000     0.024520000000     0          
C1s      C      0.329350000000     0.329350000000     0.420650000000     0          
C2s      C      0.000000000000     0.440450000000     0.309550000000     0          
O1       O      0.156085000000     0.121015000000     0.024520000000     0          
C1s      C      0.170650000000     0.329350000000     0.420650000000     0          
C2s      C      0.059550000000     0.000000000000     0.309550000000     0          
O1       O      0.378985000000     0.156085000000     0.024520000000     0          
C1s      C      0.170650000000     0.170650000000     0.420650000000     0          
C2s      C      0.000000000000     0.059550000000     0.309550000000     0          
Cu1      Cu     0.250000000000     0.358060000000     0.391940000000     0          
O1       O      0.225480000000     0.343915000000     0.371015000000     0          
O2       O      0.250000000000     0.328400000000     0.421600000000     0          
C2s      C      0.440450000000     0.440450000000     0.250000000000     0          
Cu1      Cu     0.141940000000     0.250000000000     0.391940000000     0          
O1       O      0.156085000000     0.225480000000     0.371015000000     0          
O2       O      0.171600000000     0.250000000000     0.421600000000     0          
C2s      C      0.059550000000     0.440450000000     0.250000000000     0          
Cu1      Cu     0.250000000000     0.141940000000     0.391940000000     0          
O1       O      0.274520000000     0.156085000000     0.371015000000     0          
O2       O      0.250000000000     0.171600000000     0.421600000000     0          
C2s      C      0.059550000000     0.059550000000     0.250000000000     0          
Cu1      Cu     0.358060000000     0.250000000000     0.391940000000     0          
O1       O      0.343915000000     0.274520000000     0.371015000000     0          
O2       O      0.328400000000     0.250000000000     0.421600000000     0          
C2s      C      0.440450000000     0.059550000000     0.250000000000     0          
Cu1      Cu     0.250000000000     0.141940000000     0.108060000000     0          
O1       O      0.225480000000     0.156085000000     0.128985000000     0          
O2       O      0.250000000000     0.171600000000     0.078400000000     0          
Cu1      Cu     0.358060000000     0.250000000000     0.108060000000     0          
O1       O      0.343915000000     0.225480000000     0.128985000000     0          
O2       O      0.328400000000     0.250000000000     0.078400000000     0          
Cu1      Cu     0.250000000000     0.358060000000     0.108060000000     0          
O1       O      0.274520000000     0.343915000000     0.128985000000     0          
O2       O      0.250000000000     0.328400000000     0.078400000000     0          
Cu1      Cu     0.141940000000     0.250000000000     0.108060000000     0          
O1       O      0.156085000000     0.274520000000     0.128985000000     0          
O2       O      0.171600000000     0.250000000000     0.078400000000     0          
O1       O      0.121015000000     0.225480000000     0.093915000000     0          
O1       O      0.121015000000     0.274520000000     0.406085000000     0          
O1       O      0.225480000000     0.121015000000     0.406085000000     0          
O1       O      0.378985000000     0.225480000000     0.406085000000     0          
O1       O      0.274520000000     0.378985000000     0.406085000000     0          
O1       O      0.378985000000     0.274520000000     0.093915000000     0          
O1       O      0.225480000000     0.378985000000     0.093915000000     0          
O1       O      0.274520000000     0.121015000000     0.093915000000     0          
O1       O      0.156085000000     0.378985000000     0.024520000000     0          
O1       O      0.121015000000     0.156085000000     0.024520000000     0          
O1       O      0.343915000000     0.121015000000     0.024520000000     0          
O1       O      0.378985000000     0.343915000000     0.024520000000     0          
O1       O      0.156085000000     0.121015000000     0.475480000000     0          
O1       O      0.378985000000     0.156085000000     0.475480000000     0          
O1       O      0.343915000000     0.378985000000     0.475480000000     0          
O1       O      0.121015000000     0.343915000000     0.475480000000     0          
O1       O      0.274520000000     0.156085000000     0.128985000000     0          
O1       O      0.343915000000     0.274520000000     0.128985000000     0          
O1       O      0.225480000000     0.343915000000     0.128985000000     0          
O1       O      0.156085000000     0.225480000000     0.128985000000     0          
O1       O      0.274520000000     0.343915000000     0.371015000000     0          
O1       O      0.156085000000     0.274520000000     0.371015000000     0          
O1       O      0.225480000000     0.156085000000     0.371015000000     0          
O1       O      0.343915000000     0.225480000000     0.371015000000     0          
O1       O      0.378985000000     0.274520000000     0.406085000000     0          
O1       O      0.378985000000     0.225480000000     0.093915000000     0          
O1       O      0.274520000000     0.378985000000     0.093915000000     0          
O1       O      0.121015000000     0.274520000000     0.093915000000     0          
O1       O      0.225480000000     0.121015000000     0.093915000000     0          
O1       O      0.121015000000     0.225480000000     0.406085000000     0          
O1       O      0.274520000000     0.121015000000     0.406085000000     0          
O1       O      0.225480000000     0.378985000000     0.406085000000     0          
Cu1      Cu     0.108060000000     0.391940000000     0.500000000000     0          
O1       O      0.093915000000     0.371015000000     0.975480000000     0          
O2       O      0.078400000000     0.421600000000     0.500000000000     0          
C1       C      0.102205000000     0.352205000000     0.965040000000     0          
C2       C      0.090560000000     0.340560000000     0.941890000000     0          
C3       C      0.101380000000     0.318925000000     0.931075000000     0          
H1       H      0.115505000000     0.311866500000     0.938133500000     0          
C1s      C      0.079350000000     0.079350000000     0.579350000000     0          
C2s      C      0.190450000000     0.250000000000     0.690450000000     0          
Cu1      Cu     0.108060000000     0.108060000000     0.500000000000     0          
O1       O      0.128985000000     0.093915000000     0.975480000000     0          
O2       O      0.078400000000     0.078400000000     0.500000000000     0          
C1       C      0.147795000000     0.102205000000     0.965040000000     0          
C2       C      0.159440000000     0.090560000000     0.941890000000     0          
C3       C      0.181075000000     0.101380000000     0.931075000000     0          
H1       H      0.188133500000     0.115505000000     0.938133500000     0          
C1s      C      0.420650000000     0.079350000000     0.579350000000     0          
C2s      C      0.250000000000     0.190450000000     0.690450000000     0          
Cu1      Cu     0.391940000000     0.108060000000     0.500000000000     0          
O1       O      0.406085000000     0.128985000000     0.975480000000     0          
O2       O      0.421600000000     0.078400000000     0.500000000000     0          
C1       C      0.397795000000     0.147795000000     0.965040000000     0          
C2       C      0.409440000000     0.159440000000     0.941890000000     0          
C3       C      0.398620000000     0.181075000000     0.931075000000     0          
H1       H      0.384495000000     0.188133500000     0.938133500000     0          
C1s      C      0.420650000000     0.420650000000     0.579350000000     0          
C2s      C      0.309550000000     0.250000000000     0.690450000000     0          
Cu1      Cu     0.391940000000     0.391940000000     0.500000000000     0          
O1       O      0.371015000000     0.406085000000     0.975480000000     0          
O2       O      0.421600000000     0.421600000000     0.500000000000     0          
C1       C      0.352205000000     0.397795000000     0.965040000000     0          
C2       C      0.340560000000     0.409440000000     0.941890000000     0          
C3       C      0.318925000000     0.398620000000     0.931075000000     0          
H1       H      0.311866500000     0.384495000000     0.938133500000     0          
C1s      C      0.079350000000     0.420650000000     0.579350000000     0          
C2s      C      0.250000000000     0.309550000000     0.690450000000     0          
O1       O      0.093915000000     0.128985000000     0.524520000000     0          
C1       C      0.102205000000     0.147795000000     0.534960000000     0          
C2       C      0.090560000000     0.159440000000     0.558110000000     0          
C3       C      0.101380000000     0.181075000000     0.568925000000     0          
H1       H      0.115505000000     0.188133500000     0.561866500000     0          
C1s      C      0.079350000000     0.420650000000     0.920650000000     0          
C2s      C      0.190450000000     0.250000000000     0.809550000000     0          
O1       O      0.371015000000     0.093915000000     0.524520000000     0          
C1       C      0.352205000000     0.102205000000     0.534960000000     0          
C2       C      0.340560000000     0.090560000000     0.558110000000     0          
C3       C      0.318925000000     0.101380000000     0.568925000000     0          
H1       H      0.311866500000     0.115505000000     0.561866500000     0          
C1s      C      0.079350000000     0.079350000000     0.920650000000     0          
C2s      C      0.250000000000     0.190450000000     0.809550000000     0          
O1       O      0.406085000000     0.371015000000     0.524520000000     0          
C1       C      0.397795000000     0.352205000000     0.534960000000     0          
C2       C      0.409440000000     0.340560000000     0.558110000000     0          
C3       C      0.398620000000     0.318925000000     0.568925000000     0          
H1       H      0.384495000000     0.311866500000     0.561866500000     0          
C1s      C      0.420650000000     0.079350000000     0.920650000000     0          
C2s      C      0.309550000000     0.250000000000     0.809550000000     0          
O1       O      0.128985000000     0.406085000000     0.524520000000     0          
C1       C      0.147795000000     0.397795000000     0.534960000000     0          
C2       C      0.159440000000     0.409440000000     0.558110000000     0          
C3       C      0.181075000000     0.398620000000     0.568925000000     0          
H1       H      0.188133500000     0.384495000000     0.561866500000     0          
C1s      C      0.420650000000     0.420650000000     0.920650000000     0          
C2s      C      0.250000000000     0.309550000000     0.809550000000     0          
Cu1      Cu     0.000000000000     0.108060000000     0.891940000000     0          
O1       O      0.475480000000     0.093915000000     0.871015000000     0          
O2       O      0.000000000000     0.078400000000     0.921600000000     0          
C1       C      0.465040000000     0.102205000000     0.852205000000     0          
C2       C      0.441890000000     0.090560000000     0.840560000000     0          
C3       C      0.431075000000     0.101380000000     0.818925000000     0          
H1       H      0.438133500000     0.115505000000     0.811866500000     0          
C2s      C      0.190450000000     0.190450000000     0.750000000000     0          
Cu1      Cu     0.391940000000     0.000000000000     0.891940000000     0          
O1       O      0.406085000000     0.475480000000     0.871015000000     0          
O2       O      0.421600000000     0.000000000000     0.921600000000     0          
C1       C      0.397795000000     0.465040000000     0.852205000000     0          
C2       C      0.409440000000     0.441890000000     0.840560000000     0          
C3       C      0.398620000000     0.431075000000     0.818925000000     0          
H1       H      0.384495000000     0.438133500000     0.811866500000     0          
C2s      C      0.309550000000     0.190450000000     0.750000000000     0          
Cu1      Cu     0.000000000000     0.391940000000     0.891940000000     0          
O1       O      0.024520000000     0.406085000000     0.871015000000     0          
O2       O      0.000000000000     0.421600000000     0.921600000000     0          
C1       C      0.034960000000     0.397795000000     0.852205000000     0          
C2       C      0.058110000000     0.409440000000     0.840560000000     0          
C3       C      0.068925000000     0.398620000000     0.818925000000     0          
H1       H      0.061866500000     0.384495000000     0.811866500000     0          
C2s      C      0.309550000000     0.309550000000     0.750000000000     0          
Cu1      Cu     0.108060000000     0.000000000000     0.891940000000     0          
O1       O      0.093915000000     0.024520000000     0.871015000000     0          
O2       O      0.078400000000     0.000000000000     0.921600000000     0          
C1       C      0.102205000000     0.034960000000     0.852205000000     0          
C2       C      0.090560000000     0.058110000000     0.840560000000     0          
C3       C      0.101380000000     0.068925000000     0.818925000000     0          
H1       H      0.115505000000     0.061866500000     0.811866500000     0          
C2s      C      0.190450000000     0.309550000000     0.750000000000     0          
Cu1      Cu     0.000000000000     0.391940000000     0.608060000000     0          
O1       O      0.475480000000     0.406085000000     0.628985000000     0          
O2       O      0.000000000000     0.421600000000     0.578400000000     0          
C1       C      0.465040000000     0.397795000000     0.647795000000     0          
C2       C      0.441890000000     0.409440000000     0.659440000000     0          
C3       C      0.431075000000     0.398620000000     0.681075000000     0          
H1       H      0.438133500000     0.384495000000     0.688133500000     0          
Cu1      Cu     0.108060000000     0.000000000000     0.608060000000     0          
O1       O      0.093915000000     0.475480000000     0.628985000000     0          
O2       O      0.078400000000     0.000000000000     0.578400000000     0          
C1       C      0.102205000000     0.465040000000     0.647795000000     0          
C2       C      0.090560000000     0.441890000000     0.659440000000     0          
C3       C      0.101380000000     0.431075000000     0.681075000000     0          
H1       H      0.115505000000     0.438133500000     0.688133500000     0          
Cu1      Cu     0.000000000000     0.108060000000     0.608060000000     0          
O1       O      0.024520000000     0.093915000000     0.628985000000     0          
O2       O      0.000000000000     0.078400000000     0.578400000000     0          
C1       C      0.034960000000     0.102205000000     0.647795000000     0          
C2       C      0.058110000000     0.090560000000     0.659440000000     0          
C3       C      0.068925000000     0.101380000000     0.681075000000     0          
H1       H      0.061866500000     0.115505000000     0.688133500000     0          
Cu1      Cu     0.391940000000     0.000000000000     0.608060000000     0          
O1       O      0.406085000000     0.024520000000     0.628985000000     0          
O2       O      0.421600000000     0.000000000000     0.578400000000     0          
C1       C      0.397795000000     0.034960000000     0.647795000000     0          
C2       C      0.409440000000     0.058110000000     0.659440000000     0          
C3       C      0.398620000000     0.068925000000     0.681075000000     0          
H1       H      0.384495000000     0.061866500000     0.688133500000     0          
O1       O      0.371015000000     0.475480000000     0.593915000000     0          
C1       C      0.352205000000     0.465040000000     0.602205000000     0          
C2       C      0.340560000000     0.441890000000     0.590560000000     0          
C3       C      0.318925000000     0.431075000000     0.601380000000     0          
H1       H      0.311866500000     0.438133500000     0.615505000000     0          
O1       O      0.371015000000     0.024520000000     0.906085000000     0          
C1       C      0.352205000000     0.034960000000     0.897795000000     0          
C2       C      0.340560000000     0.058110000000     0.909440000000     0          
C3       C      0.318925000000     0.068925000000     0.898620000000     0          
H1       H      0.311866500000     0.061866500000     0.884495000000     0          
O1       O      0.475480000000     0.371015000000     0.906085000000     0          
C1       C      0.465040000000     0.352205000000     0.897795000000     0          
C2       C      0.441890000000     0.340560000000     0.909440000000     0          
C3       C      0.431075000000     0.318925000000     0.898620000000     0          
H1       H      0.438133500000     0.311866500000     0.884495000000     0          
O1       O      0.128985000000     0.475480000000     0.906085000000     0          
C1       C      0.147795000000     0.465040000000     0.897795000000     0          
C2       C      0.159440000000     0.441890000000     0.909440000000     0          
C3       C      0.181075000000     0.431075000000     0.898620000000     0          
H1       H      0.188133500000     0.438133500000     0.884495000000     0          
O1       O      0.024520000000     0.128985000000     0.906085000000     0          
C1       C      0.034960000000     0.147795000000     0.897795000000     0          
C2       C      0.058110000000     0.159440000000     0.909440000000     0          
C3       C      0.068925000000     0.181075000000     0.898620000000     0          
H1       H      0.061866500000     0.188133500000     0.884495000000     0          
O1       O      0.128985000000     0.024520000000     0.593915000000     0          
C1       C      0.147795000000     0.034960000000     0.602205000000     0          
C2       C      0.159440000000     0.058110000000     0.590560000000     0          
C3       C      0.181075000000     0.068925000000     0.601380000000     0          
H1       H      0.188133500000     0.061866500000     0.615505000000     0          
O1       O      0.475480000000     0.128985000000     0.593915000000     0          
C1       C      0.465040000000     0.147795000000     0.602205000000     0          
C2       C      0.441890000000     0.159440000000     0.590560000000     0          
C3       C      0.431075000000     0.181075000000     0.601380000000     0          
H1       H      0.438133500000     0.188133500000     0.615505000000     0          
O1       O      0.024520000000     0.371015000000     0.593915000000     0          
C1       C      0.034960000000     0.352205000000     0.602205000000     0          
C2       C      0.058110000000     0.340560000000     0.590560000000     0          
C3       C      0.068925000000     0.318925000000     0.601380000000     0          
H1       H      0.061866500000     0.311866500000     0.615505000000     0          
O1       O      0.406085000000     0.128985000000     0.524520000000     0          
C1       C      0.397795000000     0.147795000000     0.534960000000     0          
C2       C      0.409440000000     0.159440000000     0.558110000000     0          
C3       C      0.398620000000     0.181075000000     0.568925000000     0          
H1       H      0.384495000000     0.188133500000     0.561866500000     0          
O1       O      0.371015000000     0.406085000000     0.524520000000     0          
C1       C      0.352205000000     0.397795000000     0.534960000000     0          
C2       C      0.340560000000     0.409440000000     0.558110000000     0          
C3       C      0.318925000000     0.398620000000     0.568925000000     0          
H1       H      0.311866500000     0.384495000000     0.561866500000     0          
O1       O      0.093915000000     0.371015000000     0.524520000000     0          
C1       C      0.102205000000     0.352205000000     0.534960000000     0          
C2       C      0.090560000000     0.340560000000     0.558110000000     0          
C3       C      0.101380000000     0.318925000000     0.568925000000     0          
H1       H      0.115505000000     0.311866500000     0.561866500000     0          
O1       O      0.128985000000     0.093915000000     0.524520000000     0          
C1       C      0.147795000000     0.102205000000     0.534960000000     0          
C2       C      0.159440000000     0.090560000000     0.558110000000     0          
C3       C      0.181075000000     0.101380000000     0.568925000000     0          
H1       H      0.188133500000     0.115505000000     0.561866500000     0          
O1       O      0.406085000000     0.371015000000     0.975480000000     0          
C1       C      0.397795000000     0.352205000000     0.965040000000     0          
C2       C      0.409440000000     0.340560000000     0.941890000000     0          
C3       C      0.398620000000     0.318925000000     0.931075000000     0          
H1       H      0.384495000000     0.311866500000     0.938133500000     0          
O1       O      0.128985000000     0.406085000000     0.975480000000     0          
C1       C      0.147795000000     0.397795000000     0.965040000000     0          
C2       C      0.159440000000     0.409440000000     0.941890000000     0          
C3       C      0.181075000000     0.398620000000     0.931075000000     0          
H1       H      0.188133500000     0.384495000000     0.938133500000     0          
O1       O      0.093915000000     0.128985000000     0.975480000000     0          
C1       C      0.102205000000     0.147795000000     0.965040000000     0          
C2       C      0.090560000000     0.159440000000     0.941890000000     0          
C3       C      0.101380000000     0.181075000000     0.931075000000     0          
H1       H      0.115505000000     0.188133500000     0.938133500000     0          
O1       O      0.371015000000     0.093915000000     0.975480000000     0          
C1       C      0.352205000000     0.102205000000     0.965040000000     0          
C2       C      0.340560000000     0.090560000000     0.941890000000     0          
C3       C      0.318925000000     0.101380000000     0.931075000000     0          
H1       H      0.311866500000     0.115505000000     0.938133500000     0          
O1       O      0.024520000000     0.406085000000     0.628985000000     0          
C1       C      0.034960000000     0.397795000000     0.647795000000     0          
C2       C      0.058110000000     0.409440000000     0.659440000000     0          
C3       C      0.068925000000     0.398620000000     0.681075000000     0          
H1       H      0.061866500000     0.384495000000     0.688133500000     0          
O1       O      0.093915000000     0.024520000000     0.628985000000     0          
C1       C      0.102205000000     0.034960000000     0.647795000000     0          
C2       C      0.090560000000     0.058110000000     0.659440000000     0          
C3       C      0.101380000000     0.068925000000     0.681075000000     0          
H1       H      0.115505000000     0.061866500000     0.688133500000     0          
O1       O      0.475480000000     0.093915000000     0.628985000000     0          
C1       C      0.465040000000     0.102205000000     0.647795000000     0          
C2       C      0.441890000000     0.090560000000     0.659440000000     0          
C3       C      0.431075000000     0.101380000000     0.681075000000     0          
H1       H      0.438133500000     0.115505000000     0.688133500000     0          
O1       O      0.406085000000     0.475480000000     0.628985000000     0          
C1       C      0.397795000000     0.465040000000     0.647795000000     0          
C2       C      0.409440000000     0.441890000000     0.659440000000     0          
C3       C      0.398620000000     0.431075000000     0.681075000000     0          
H1       H      0.384495000000     0.438133500000     0.688133500000     0          
O1       O      0.024520000000     0.093915000000     0.871015000000     0          
C1       C      0.034960000000     0.102205000000     0.852205000000     0          
C2       C      0.058110000000     0.090560000000     0.840560000000     0          
C3       C      0.068925000000     0.101380000000     0.818925000000     0          
H1       H      0.061866500000     0.115505000000     0.811866500000     0          
O1       O      0.406085000000     0.024520000000     0.871015000000     0          
C1       C      0.397795000000     0.034960000000     0.852205000000     0          
C2       C      0.409440000000     0.058110000000     0.840560000000     0          
C3       C      0.398620000000     0.068925000000     0.818925000000     0          
H1       H      0.384495000000     0.061866500000     0.811866500000     0          
O1       O      0.475480000000     0.406085000000     0.871015000000     0          
C1       C      0.465040000000     0.397795000000     0.852205000000     0          
C2       C      0.441890000000     0.409440000000     0.840560000000     0          
C3       C      0.431075000000     0.398620000000     0.818925000000     0          
H1       H      0.438133500000     0.384495000000     0.811866500000     0          
O1       O      0.093915000000     0.475480000000     0.871015000000     0          
C1       C      0.102205000000     0.465040000000     0.852205000000     0          
C2       C      0.090560000000     0.441890000000     0.840560000000     0          
C3       C      0.101380000000     0.431075000000     0.818925000000     0          
H1       H      0.115505000000     0.438133500000     0.811866500000     0          
O1       O      0.128985000000     0.024520000000     0.906085000000     0          
C1       C      0.147795000000     0.034960000000     0.897795000000     0          
C2       C      0.159440000000     0.058110000000     0.909440000000     0          
C3       C      0.181075000000     0.068925000000     0.898620000000     0          
H1       H      0.188133500000     0.061866500000     0.884495000000     0          
O1       O      0.128985000000     0.475480000000     0.593915000000     0          
C1       C      0.147795000000     0.465040000000     0.602205000000     0          
C2       C      0.159440000000     0.441890000000     0.590560000000     0          
C3       C      0.181075000000     0.431075000000     0.601380000000     0          
H1       H      0.188133500000     0.438133500000     0.615505000000     0          
O1       O      0.024520000000     0.128985000000     0.593915000000     0          
C1       C      0.034960000000     0.147795000000     0.602205000000     0          
C2       C      0.058110000000     0.159440000000     0.590560000000     0          
C3       C      0.068925000000     0.181075000000     0.601380000000     0          
H1       H      0.061866500000     0.188133500000     0.615505000000     0          
O1       O      0.371015000000     0.024520000000     0.593915000000     0          
C1       C      0.352205000000     0.034960000000     0.602205000000     0          
C2       C      0.340560000000     0.058110000000     0.590560000000     0          
C3       C      0.318925000000     0.068925000000     0.601380000000     0          
H1       H      0.311866500000     0.061866500000     0.615505000000     0          
O1       O      0.475480000000     0.371015000000     0.593915000000     0          
C1       C      0.465040000000     0.352205000000     0.602205000000     0          
C2       C      0.441890000000     0.340560000000     0.590560000000     0          
C3       C      0.431075000000     0.318925000000     0.601380000000     0          
H1       H      0.438133500000     0.311866500000     0.615505000000     0          
O1       O      0.371015000000     0.475480000000     0.906085000000     0          
C1       C      0.352205000000     0.465040000000     0.897795000000     0          
C2       C      0.340560000000     0.441890000000     0.909440000000     0          
C3       C      0.318925000000     0.431075000000     0.898620000000     0          
H1       H      0.311866500000     0.438133500000     0.884495000000     0          
O1       O      0.024520000000     0.371015000000     0.906085000000     0          
C1       C      0.034960000000     0.352205000000     0.897795000000     0          
C2       C      0.058110000000     0.340560000000     0.909440000000     0          
C3       C      0.068925000000     0.318925000000     0.898620000000     0          
H1       H      0.061866500000     0.311866500000     0.884495000000     0          
O1       O      0.475480000000     0.128985000000     0.906085000000     0          
C1       C      0.465040000000     0.147795000000     0.897795000000     0          
C2       C      0.441890000000     0.159440000000     0.909440000000     0          
C3       C      0.431075000000     0.181075000000     0.898620000000     0          
H1       H      0.438133500000     0.188133500000     0.884495000000     0          
Cu1      Cu     0.108060000000     0.141940000000     0.750000000000     0          
O1       O      0.093915000000     0.121015000000     0.725480000000     0          
O2       O      0.078400000000     0.171600000000     0.750000000000     0          
C1       C      0.102205000000     0.102205000000     0.715040000000     0          
C2       C      0.090560000000     0.090560000000     0.691890000000     0          
C1s      C      0.079350000000     0.329350000000     0.829350000000     0          
C2s      C      0.190450000000     0.000000000000     0.940450000000     0          
Cu1      Cu     0.108060000000     0.358060000000     0.750000000000     0          
O1       O      0.128985000000     0.343915000000     0.725480000000     0          
O2       O      0.078400000000     0.328400000000     0.750000000000     0          
C1       C      0.147795000000     0.352205000000     0.715040000000     0          
C2       C      0.159440000000     0.340560000000     0.691890000000     0          
C3       C      0.181075000000     0.351380000000     0.681075000000     0          
H1       H      0.188133500000     0.365505000000     0.688133500000     0          
C1s      C      0.420650000000     0.329350000000     0.829350000000     0          
C2s      C      0.250000000000     0.440450000000     0.940450000000     0          
Cu1      Cu     0.391940000000     0.358060000000     0.750000000000     0          
O1       O      0.406085000000     0.378985000000     0.725480000000     0          
O2       O      0.421600000000     0.328400000000     0.750000000000     0          
C1       C      0.397795000000     0.397795000000     0.715040000000     0          
C2       C      0.409440000000     0.409440000000     0.691890000000     0          
C1s      C      0.420650000000     0.170650000000     0.829350000000     0          
C2s      C      0.309550000000     0.000000000000     0.940450000000     0          
Cu1      Cu     0.391940000000     0.141940000000     0.750000000000     0          
O1       O      0.371015000000     0.156085000000     0.725480000000     0          
O2       O      0.421600000000     0.171600000000     0.750000000000     0          
C1       C      0.352205000000     0.147795000000     0.715040000000     0          
C2       C      0.340560000000     0.159440000000     0.691890000000     0          
C3       C      0.318925000000     0.148620000000     0.681075000000     0          
H1       H      0.311866500000     0.134495000000     0.688133500000     0          
C1s      C      0.079350000000     0.170650000000     0.829350000000     0          
C2s      C      0.250000000000     0.059550000000     0.940450000000     0          
O1       O      0.093915000000     0.378985000000     0.774520000000     0          
C1       C      0.102205000000     0.397795000000     0.784960000000     0          
C2       C      0.090560000000     0.409440000000     0.808110000000     0          
C1s      C      0.079350000000     0.170650000000     0.670650000000     0          
C2s      C      0.190450000000     0.000000000000     0.559550000000     0          
O1       O      0.371015000000     0.343915000000     0.774520000000     0          
C1       C      0.352205000000     0.352205000000     0.784960000000     0          
C2       C      0.340560000000     0.340560000000     0.808110000000     0          
C3       C      0.318925000000     0.351380000000     0.818925000000     0          
H1       H      0.311866500000     0.365505000000     0.811866500000     0          
C1s      C      0.079350000000     0.329350000000     0.670650000000     0          
C2s      C      0.250000000000     0.440450000000     0.559550000000     0          
O1       O      0.406085000000     0.121015000000     0.774520000000     0          
C1       C      0.397795000000     0.102205000000     0.784960000000     0          
C2       C      0.409440000000     0.090560000000     0.808110000000     0          
C1s      C      0.420650000000     0.329350000000     0.670650000000     0          
C2s      C      0.309550000000     0.000000000000     0.559550000000     0          
O1       O      0.128985000000     0.156085000000     0.774520000000     0          
C1       C      0.147795000000     0.147795000000     0.784960000000     0          
C2       C      0.159440000000     0.159440000000     0.808110000000     0          
C3       C      0.181075000000     0.148620000000     0.818925000000     0          
H1       H      0.188133500000     0.134495000000     0.811866500000     0          
C1s      C      0.420650000000     0.170650000000     0.670650000000     0          
C2s      C      0.250000000000     0.059550000000     0.559550000000     0          
Cu1      Cu     0.000000000000     0.358060000000     0.641940000000     0          
O1       O      0.475480000000     0.343915000000     0.621015000000     0          
O2       O      0.000000000000     0.328400000000     0.671600000000     0          
C3       C      0.431075000000     0.351380000000     0.568925000000     0          
H1       H      0.438133500000     0.365505000000     0.561866500000     0          
C2s      C      0.190450000000     0.440450000000     0.500000000000     0          
Cu1      Cu     0.391940000000     0.250000000000     0.641940000000     0          
O1       O      0.406085000000     0.225480000000     0.621015000000     0          
O2       O      0.421600000000     0.250000000000     0.671600000000     0          
C1       C      0.397795000000     0.215040000000     0.602205000000     0          
C2       C      0.409440000000     0.191890000000     0.590560000000     0          
C2s      C      0.309550000000     0.440450000000     0.500000000000     0          
Cu1      Cu     0.000000000000     0.141940000000     0.641940000000     0          
O1       O      0.024520000000     0.156085000000     0.621015000000     0          
O2       O      0.000000000000     0.171600000000     0.671600000000     0          
C3       C      0.068925000000     0.148620000000     0.568925000000     0          
H1       H      0.061866500000     0.134495000000     0.561866500000     0          
C2s      C      0.309550000000     0.059550000000     0.500000000000     0          
Cu1      Cu     0.108060000000     0.250000000000     0.641940000000     0          
O1       O      0.093915000000     0.274520000000     0.621015000000     0          
O2       O      0.078400000000     0.250000000000     0.671600000000     0          
C1       C      0.102205000000     0.284960000000     0.602205000000     0          
C2       C      0.090560000000     0.308110000000     0.590560000000     0          
C2s      C      0.190450000000     0.059550000000     0.500000000000     0          
Cu1      Cu     0.000000000000     0.141940000000     0.858060000000     0          
O1       O      0.475480000000     0.156085000000     0.878985000000     0          
O2       O      0.000000000000     0.171600000000     0.828400000000     0          
C3       C      0.431075000000     0.148620000000     0.931075000000     0          
H1       H      0.438133500000     0.134495000000     0.938133500000     0          
Cu1      Cu     0.108060000000     0.250000000000     0.858060000000     0          
O1       O      0.093915000000     0.225480000000     0.878985000000     0          
O2       O      0.078400000000     0.250000000000     0.828400000000     0          
C1       C      0.102205000000     0.215040000000     0.897795000000     0          
C2       C      0.090560000000     0.191890000000     0.909440000000     0          
Cu1      Cu     0.000000000000     0.358060000000     0.858060000000     0          
O1       O      0.024520000000     0.343915000000     0.878985000000     0          
O2       O      0.000000000000     0.328400000000     0.828400000000     0          
C3       C      0.068925000000     0.351380000000     0.931075000000     0          
H1       H      0.061866500000     0.365505000000     0.938133500000     0          
Cu1      Cu     0.391940000000     0.250000000000     0.858060000000     0          
O1       O      0.406085000000     0.274520000000     0.878985000000     0          
O2       O      0.421600000000     0.250000000000     0.828400000000     0          
C1       C      0.397795000000     0.284960000000     0.897795000000     0          
C2       C      0.409440000000     0.308110000000     0.909440000000     0          
O1       O      0.371015000000     0.225480000000     0.843915000000     0          
C1       C      0.352205000000     0.215040000000     0.852205000000     0          
C2       C      0.340560000000     0.191890000000     0.840560000000     0          
C3       C      0.318925000000     0.181075000000     0.851380000000     0          
H1       H      0.311866500000     0.188133500000     0.865505000000     0          
O1       O      0.371015000000     0.274520000000     0.656085000000     0          
C1       C      0.352205000000     0.284960000000     0.647795000000     0          
C2       C      0.340560000000     0.308110000000     0.659440000000     0          
C3       C      0.318925000000     0.318925000000     0.648620000000     0          
H1       H      0.311866500000     0.311866500000     0.634495000000     0          
O1       O      0.475480000000     0.121015000000     0.656085000000     0          
C3       C      0.431075000000     0.068925000000     0.648620000000     0          
H1       H      0.438133500000     0.061866500000     0.634495000000     0          
O1       O      0.128985000000     0.225480000000     0.656085000000     0          
C1       C      0.147795000000     0.215040000000     0.647795000000     0          
C2       C      0.159440000000     0.191890000000     0.659440000000     0          
C3       C      0.181075000000     0.181075000000     0.648620000000     0          
H1       H      0.188133500000     0.188133500000     0.634495000000     0          
O1       O      0.024520000000     0.378985000000     0.656085000000     0          
C3       C      0.068925000000     0.431075000000     0.648620000000     0          
H1       H      0.061866500000     0.438133500000     0.634495000000     0          
O1       O      0.128985000000     0.274520000000     0.843915000000     0          
C1       C      0.147795000000     0.284960000000     0.852205000000     0          
C2       C      0.159440000000     0.308110000000     0.840560000000     0          
C3       C      0.181075000000     0.318925000000     0.851380000000     0          
H1       H      0.188133500000     0.311866500000     0.865505000000     0          
O1       O      0.475480000000     0.378985000000     0.843915000000     0          
C3       C      0.431075000000     0.431075000000     0.851380000000     0          
H1       H      0.438133500000     0.438133500000     0.865505000000     0          
O1       O      0.024520000000     0.121015000000     0.843915000000     0          
C3       C      0.068925000000     0.068925000000     0.851380000000     0          
H1       H      0.061866500000     0.061866500000     0.865505000000     0          
O1       O      0.406085000000     0.378985000000     0.774520000000     0          
C1       C      0.397795000000     0.397795000000     0.784960000000     0          
C2       C      0.409440000000     0.409440000000     0.808110000000     0          
O1       O      0.371015000000     0.156085000000     0.774520000000     0          
C1       C      0.352205000000     0.147795000000     0.784960000000     0          
C2       C      0.340560000000     0.159440000000     0.808110000000     0          
C3       C      0.318925000000     0.148620000000     0.818925000000     0          
H1       H      0.311866500000     0.134495000000     0.811866500000     0          
O1       O      0.093915000000     0.121015000000     0.774520000000     0          
C1       C      0.102205000000     0.102205000000     0.784960000000     0          
C2       C      0.090560000000     0.090560000000     0.808110000000     0          
O1       O      0.128985000000     0.343915000000     0.774520000000     0          
C1       C      0.147795000000     0.352205000000     0.784960000000     0          
C2       C      0.159440000000     0.340560000000     0.808110000000     0          
C3       C      0.181075000000     0.351380000000     0.818925000000     0          
H1       H      0.188133500000     0.365505000000     0.811866500000     0          
O1       O      0.406085000000     0.121015000000     0.725480000000     0          
C1       C      0.397795000000     0.102205000000     0.715040000000     0          
C2       C      0.409440000000     0.090560000000     0.691890000000     0          
O1       O      0.128985000000     0.156085000000     0.725480000000     0          
C1       C      0.147795000000     0.147795000000     0.715040000000     0          
C2       C      0.159440000000     0.159440000000     0.691890000000     0          
C3       C      0.181075000000     0.148620000000     0.681075000000     0          
H1       H      0.188133500000     0.134495000000     0.688133500000     0          
O1       O      0.093915000000     0.378985000000     0.725480000000     0          
C1       C      0.102205000000     0.397795000000     0.715040000000     0          
C2       C      0.090560000000     0.409440000000     0.691890000000     0          
O1       O      0.371015000000     0.343915000000     0.725480000000     0          
C1       C      0.352205000000     0.352205000000     0.715040000000     0          
C2       C      0.340560000000     0.340560000000     0.691890000000     0          
C3       C      0.318925000000     0.351380000000     0.681075000000     0          
H1       H      0.311866500000     0.365505000000     0.688133500000     0          
O1       O      0.024520000000     0.156085000000     0.878985000000     0          
C3       C      0.068925000000     0.148620000000     0.931075000000     0          
H1       H      0.061866500000     0.134495000000     0.938133500000     0          
O1       O      0.093915000000     0.274520000000     0.878985000000     0          
C1       C      0.102205000000     0.284960000000     0.897795000000     0          
C2       C      0.090560000000     0.308110000000     0.909440000000     0          
O1       O      0.475480000000     0.343915000000     0.878985000000     0          
C3       C      0.431075000000     0.351380000000     0.931075000000     0          
H1       H      0.438133500000     0.365505000000     0.938133500000     0          
O1       O      0.406085000000     0.225480000000     0.878985000000     0          
C1       C      0.397795000000     0.215040000000     0.897795000000     0          
C2       C      0.409440000000     0.191890000000     0.909440000000     0          
O1       O      0.024520000000     0.343915000000     0.621015000000     0          
C3       C      0.068925000000     0.351380000000     0.568925000000     0          
H1       H      0.061866500000     0.365505000000     0.561866500000     0          
O1       O      0.406085000000     0.274520000000     0.621015000000     0          
C1       C      0.397795000000     0.284960000000     0.602205000000     0          
C2       C      0.409440000000     0.308110000000     0.590560000000     0          
O1       O      0.475480000000     0.156085000000     0.621015000000     0          
C3       C      0.431075000000     0.148620000000     0.568925000000     0          
H1       H      0.438133500000     0.134495000000     0.561866500000     0          
O1       O      0.093915000000     0.225480000000     0.621015000000     0          
C1       C      0.102205000000     0.215040000000     0.602205000000     0          
C2       C      0.090560000000     0.191890000000     0.590560000000     0          
O1       O      0.128985000000     0.274520000000     0.656085000000     0          
C1       C      0.147795000000     0.284960000000     0.647795000000     0          
C2       C      0.159440000000     0.308110000000     0.659440000000     0          
C3       C      0.181075000000     0.318925000000     0.648620000000     0          
H1       H      0.188133500000     0.311866500000     0.634495000000     0          
O1       O      0.128985000000     0.225480000000     0.843915000000     0          
C1       C      0.147795000000     0.215040000000     0.852205000000     0          
C2       C      0.159440000000     0.191890000000     0.840560000000     0          
C3       C      0.181075000000     0.181075000000     0.851380000000     0          
H1       H      0.188133500000     0.188133500000     0.865505000000     0          
O1       O      0.024520000000     0.378985000000     0.843915000000     0          
C3       C      0.068925000000     0.431075000000     0.851380000000     0          
H1       H      0.061866500000     0.438133500000     0.865505000000     0          
O1       O      0.371015000000     0.274520000000     0.843915000000     0          
C1       C      0.352205000000     0.284960000000     0.852205000000     0          
C2       C      0.340560000000     0.308110000000     0.840560000000     0          
C3       C      0.318925000000     0.318925000000     0.851380000000     0          
H1       H      0.311866500000     0.311866500000     0.865505000000     0          
O1       O      0.475480000000     0.121015000000     0.843915000000     0          
C3       C      0.431075000000     0.068925000000     0.851380000000     0          
H1       H      0.438133500000     0.061866500000     0.865505000000     0          
O1       O      0.371015000000     0.225480000000     0.656085000000     0          
C1       C      0.352205000000     0.215040000000     0.647795000000     0          
C2       C      0.340560000000     0.191890000000     0.659440000000     0          
C3       C      0.318925000000     0.181075000000     0.648620000000     0          
H1       H      0.311866500000     0.188133500000     0.634495000000     0          
O1       O      0.024520000000     0.121015000000     0.656085000000     0          
C3       C      0.068925000000     0.068925000000     0.648620000000     0          
H1       H      0.061866500000     0.061866500000     0.634495000000     0          
O1       O      0.475480000000     0.378985000000     0.656085000000     0          
C3       C      0.431075000000     0.431075000000     0.648620000000     0          
H1       H      0.438133500000     0.438133500000     0.634495000000     0          
Cu1      Cu     0.358060000000     0.391940000000     0.750000000000     0          
O1       O      0.343915000000     0.371015000000     0.725480000000     0          
O2       O      0.328400000000     0.421600000000     0.750000000000     0          
C3       C      0.351380000000     0.318925000000     0.681075000000     0          
H1       H      0.365505000000     0.311866500000     0.688133500000     0          
C1s      C      0.329350000000     0.079350000000     0.829350000000     0          
C2s      C      0.440450000000     0.250000000000     0.940450000000     0          
Cu1      Cu     0.358060000000     0.108060000000     0.750000000000     0          
O1       O      0.378985000000     0.093915000000     0.725480000000     0          
O2       O      0.328400000000     0.078400000000     0.750000000000     0          
C1s      C      0.170650000000     0.079350000000     0.829350000000     0          
C2s      C      0.000000000000     0.190450000000     0.940450000000     0          
Cu1      Cu     0.141940000000     0.108060000000     0.750000000000     0          
O1       O      0.156085000000     0.128985000000     0.725480000000     0          
O2       O      0.171600000000     0.078400000000     0.750000000000     0          
C3       C      0.148620000000     0.181075000000     0.681075000000     0          
H1       H      0.134495000000     0.188133500000     0.688133500000     0          
C1s      C      0.170650000000     0.420650000000     0.829350000000     0          
C2s      C      0.059550000000     0.250000000000     0.940450000000     0          
Cu1      Cu     0.141940000000     0.391940000000     0.750000000000     0          
O1       O      0.121015000000     0.406085000000     0.725480000000     0          
O2       O      0.171600000000     0.421600000000     0.750000000000     0          
C1s      C      0.329350000000     0.420650000000     0.829350000000     0          
C2s      C      0.000000000000     0.309550000000     0.940450000000     0          
O1       O      0.343915000000     0.128985000000     0.774520000000     0          
C3       C      0.351380000000     0.181075000000     0.818925000000     0          
H1       H      0.365505000000     0.188133500000     0.811866500000     0          
C1s      C      0.329350000000     0.420650000000     0.670650000000     0          
C2s      C      0.440450000000     0.250000000000     0.559550000000     0          
O1       O      0.121015000000     0.093915000000     0.774520000000     0          
C1s      C      0.329350000000     0.079350000000     0.670650000000     0          
C2s      C      0.000000000000     0.190450000000     0.559550000000     0          
O1       O      0.156085000000     0.371015000000     0.774520000000     0          
C3       C      0.148620000000     0.318925000000     0.818925000000     0          
H1       H      0.134495000000     0.311866500000     0.811866500000     0          
C1s      C      0.170650000000     0.079350000000     0.670650000000     0          
C2s      C      0.059550000000     0.250000000000     0.559550000000     0          
O1       O      0.378985000000     0.406085000000     0.774520000000     0          
C1s      C      0.170650000000     0.420650000000     0.670650000000     0          
C2s      C      0.000000000000     0.309550000000     0.559550000000     0          
Cu1      Cu     0.250000000000     0.108060000000     0.641940000000     0          
O1       O      0.225480000000     0.093915000000     0.621015000000     0          
O2       O      0.250000000000     0.078400000000     0.671600000000     0          
C1       C      0.215040000000     0.102205000000     0.602205000000     0          
C2       C      0.191890000000     0.090560000000     0.590560000000     0          
C2s      C      0.440450000000     0.190450000000     0.500000000000     0          
Cu1      Cu     0.141940000000     0.000000000000     0.641940000000     0          
O1       O      0.156085000000     0.475480000000     0.621015000000     0          
O2       O      0.171600000000     0.000000000000     0.671600000000     0          
C3       C      0.148620000000     0.431075000000     0.568925000000     0          
H1       H      0.134495000000     0.438133500000     0.561866500000     0          
C2s      C      0.059550000000     0.190450000000     0.500000000000     0          
Cu1      Cu     0.250000000000     0.391940000000     0.641940000000     0          
O1       O      0.274520000000     0.406085000000     0.621015000000     0          
O2       O      0.250000000000     0.421600000000     0.671600000000     0          
C1       C      0.284960000000     0.397795000000     0.602205000000     0          
C2       C      0.308110000000     0.409440000000     0.590560000000     0          
C2s      C      0.059550000000     0.309550000000     0.500000000000     0          
Cu1      Cu     0.358060000000     0.000000000000     0.641940000000     0          
O1       O      0.343915000000     0.024520000000     0.621015000000     0          
O2       O      0.328400000000     0.000000000000     0.671600000000     0          
C3       C      0.351380000000     0.068925000000     0.568925000000     0          
H1       H      0.365505000000     0.061866500000     0.561866500000     0          
C2s      C      0.440450000000     0.309550000000     0.500000000000     0          
Cu1      Cu     0.250000000000     0.391940000000     0.858060000000     0          
O1       O      0.225480000000     0.406085000000     0.878985000000     0          
O2       O      0.250000000000     0.421600000000     0.828400000000     0          
C1       C      0.215040000000     0.397795000000     0.897795000000     0          
C2       C      0.191890000000     0.409440000000     0.909440000000     0          
Cu1      Cu     0.358060000000     0.000000000000     0.858060000000     0          
O1       O      0.343915000000     0.475480000000     0.878985000000     0          
O2       O      0.328400000000     0.000000000000     0.828400000000     0          
C3       C      0.351380000000     0.431075000000     0.931075000000     0          
H1       H      0.365505000000     0.438133500000     0.938133500000     0          
Cu1      Cu     0.250000000000     0.108060000000     0.858060000000     0          
O1       O      0.274520000000     0.093915000000     0.878985000000     0          
O2       O      0.250000000000     0.078400000000     0.828400000000     0          
C1       C      0.284960000000     0.102205000000     0.897795000000     0          
C2       C      0.308110000000     0.090560000000     0.909440000000     0          
Cu1      Cu     0.141940000000     0.000000000000     0.858060000000     0          
O1       O      0.156085000000     0.024520000000     0.878985000000     0          
O2       O      0.171600000000     0.000000000000     0.828400000000     0          
C3       C      0.148620000000     0.068925000000     0.931075000000     0          
H1       H      0.134495000000     0.061866500000     0.938133500000     0          
O1       O      0.121015000000     0.475480000000     0.843915000000     0          
O1       O      0.121015000000     0.024520000000     0.656085000000     0          
O1       O      0.225480000000     0.371015000000     0.656085000000     0          
C1       C      0.215040000000     0.352205000000     0.647795000000     0          
C2       C      0.191890000000     0.340560000000     0.659440000000     0          
O1       O      0.378985000000     0.475480000000     0.656085000000     0          
O1       O      0.274520000000     0.128985000000     0.656085000000     0          
C1       C      0.284960000000     0.147795000000     0.647795000000     0          
C2       C      0.308110000000     0.159440000000     0.659440000000     0          
O1       O      0.378985000000     0.024520000000     0.843915000000     0          
O1       O      0.225480000000     0.128985000000     0.843915000000     0          
C1       C      0.215040000000     0.147795000000     0.852205000000     0          
C2       C      0.191890000000     0.159440000000     0.840560000000     0          
O1       O      0.274520000000     0.371015000000     0.843915000000     0          
C1       C      0.284960000000     0.352205000000     0.852205000000     0          
C2       C      0.308110000000     0.340560000000     0.840560000000     0          
O1       O      0.156085000000     0.128985000000     0.774520000000     0          
C3       C      0.148620000000     0.181075000000     0.818925000000     0          
H1       H      0.134495000000     0.188133500000     0.811866500000     0          
O1       O      0.121015000000     0.406085000000     0.774520000000     0          
O1       O      0.343915000000     0.371015000000     0.774520000000     0          
C3       C      0.351380000000     0.318925000000     0.818925000000     0          
H1       H      0.365505000000     0.311866500000     0.811866500000     0          
O1       O      0.378985000000     0.093915000000     0.774520000000     0          
O1       O      0.156085000000     0.371015000000     0.725480000000     0          
C3       C      0.148620000000     0.318925000000     0.681075000000     0          
H1       H      0.134495000000     0.311866500000     0.688133500000     0          
O1       O      0.378985000000     0.406085000000     0.725480000000     0          
O1       O      0.343915000000     0.128985000000     0.725480000000     0          
C3       C      0.351380000000     0.181075000000     0.681075000000     0          
H1       H      0.365505000000     0.188133500000     0.688133500000     0          
O1       O      0.121015000000     0.093915000000     0.725480000000     0          
O1       O      0.274520000000     0.406085000000     0.878985000000     0          
C1       C      0.284960000000     0.397795000000     0.897795000000     0          
C2       C      0.308110000000     0.409440000000     0.909440000000     0          
O1       O      0.343915000000     0.024520000000     0.878985000000     0          
C3       C      0.351380000000     0.068925000000     0.931075000000     0          
H1       H      0.365505000000     0.061866500000     0.938133500000     0          
O1       O      0.225480000000     0.093915000000     0.878985000000     0          
C1       C      0.215040000000     0.102205000000     0.897795000000     0          
C2       C      0.191890000000     0.090560000000     0.909440000000     0          
O1       O      0.156085000000     0.475480000000     0.878985000000     0          
C3       C      0.148620000000     0.431075000000     0.931075000000     0          
H1       H      0.134495000000     0.438133500000     0.938133500000     0          
O1       O      0.274520000000     0.093915000000     0.621015000000     0          
C1       C      0.284960000000     0.102205000000     0.602205000000     0          
C2       C      0.308110000000     0.090560000000     0.590560000000     0          
O1       O      0.156085000000     0.024520000000     0.621015000000     0          
C3       C      0.148620000000     0.068925000000     0.568925000000     0          
H1       H      0.134495000000     0.061866500000     0.561866500000     0          
O1       O      0.225480000000     0.406085000000     0.621015000000     0          
C1       C      0.215040000000     0.397795000000     0.602205000000     0          
C2       C      0.191890000000     0.409440000000     0.590560000000     0          
O1       O      0.343915000000     0.475480000000     0.621015000000     0          
C3       C      0.351380000000     0.431075000000     0.568925000000     0          
H1       H      0.365505000000     0.438133500000     0.561866500000     0          
O1       O      0.378985000000     0.024520000000     0.656085000000     0          
O1       O      0.378985000000     0.475480000000     0.843915000000     0          
O1       O      0.274520000000     0.128985000000     0.843915000000     0          
C1       C      0.284960000000     0.147795000000     0.852205000000     0          
C2       C      0.308110000000     0.159440000000     0.840560000000     0          
O1       O      0.121015000000     0.024520000000     0.843915000000     0          
O1       O      0.225480000000     0.371015000000     0.843915000000     0          
C1       C      0.215040000000     0.352205000000     0.852205000000     0          
C2       C      0.191890000000     0.340560000000     0.840560000000     0          
O1       O      0.121015000000     0.475480000000     0.656085000000     0          
O1       O      0.274520000000     0.371015000000     0.656085000000     0          
C1       C      0.284960000000     0.352205000000     0.647795000000     0          
C2       C      0.308110000000     0.340560000000     0.659440000000     0          
O1       O      0.225480000000     0.128985000000     0.656085000000     0          
C1       C      0.215040000000     0.147795000000     0.647795000000     0          
C2       C      0.191890000000     0.159440000000     0.659440000000     0          
Cu1      Cu     0.358060000000     0.141940000000     0.500000000000     0          
O1       O      0.343915000000     0.121015000000     0.975480000000     0          
O2       O      0.328400000000     0.171600000000     0.500000000000     0          
C1s      C      0.329350000000     0.329350000000     0.579350000000     0          
C2s      C      0.440450000000     0.000000000000     0.690450000000     0          
Cu1      Cu     0.358060000000     0.358060000000     0.500000000000     0          
O1       O      0.378985000000     0.343915000000     0.975480000000     0          
O2       O      0.328400000000     0.328400000000     0.500000000000     0          
C1s      C      0.170650000000     0.329350000000     0.579350000000     0          
C2s      C      0.000000000000     0.440450000000     0.690450000000     0          
Cu1      Cu     0.141940000000     0.358060000000     0.500000000000     0          
O1       O      0.156085000000     0.378985000000     0.975480000000     0          
O2       O      0.171600000000     0.328400000000     0.500000000000     0          
C1s      C      0.170650000000     0.170650000000     0.579350000000     0          
C2s      C      0.059550000000     0.000000000000     0.690450000000     0          
Cu1      Cu     0.141940000000     0.141940000000     0.500000000000     0          
O1       O      0.121015000000     0.156085000000     0.975480000000     0          
O2       O      0.171600000000     0.171600000000     0.500000000000     0          
C1s      C      0.329350000000     0.170650000000     0.579350000000     0          
C2s      C      0.000000000000     0.059550000000     0.690450000000     0          
O1       O      0.343915000000     0.378985000000     0.524520000000     0          
C1s      C      0.329350000000     0.170650000000     0.920650000000     0          
C2s      C      0.440450000000     0.000000000000     0.809550000000     0          
O1       O      0.121015000000     0.343915000000     0.524520000000     0          
C1s      C      0.329350000000     0.329350000000     0.920650000000     0          
C2s      C      0.000000000000     0.440450000000     0.809550000000     0          
O1       O      0.156085000000     0.121015000000     0.524520000000     0          
C1s      C      0.170650000000     0.329350000000     0.920650000000     0          
C2s      C      0.059550000000     0.000000000000     0.809550000000     0          
O1       O      0.378985000000     0.156085000000     0.524520000000     0          
C1s      C      0.170650000000     0.170650000000     0.920650000000     0          
C2s      C      0.000000000000     0.059550000000     0.809550000000     0          
Cu1      Cu     0.250000000000     0.358060000000     0.891940000000     0          
O1       O      0.225480000000     0.343915000000     0.871015000000     0          
O2       O      0.250000000000     0.328400000000     0.921600000000     0          
C2s      C      0.440450000000     0.440450000000     0.750000000000     0          
Cu1      Cu     0.141940000000     0.250000000000     0.891940000000     0          
O1       O      0.156085000000     0.225480000000     0.871015000000     0          
O2       O      0.171600000000     0.250000000000     0.921600000000     0          
C2s      C      0.059550000000     0.440450000000     0.750000000000     0          
Cu1      Cu     0.250000000000     0.141940000000     0.891940000000     0          
O1       O      0.274520000000     0.156085000000     0.871015000000     0          
O2       O      0.250000000000     0.171600000000     0.921600000000     0          
C2s      C      0.059550000000     0.059550000000     0.750000000000     0          
Cu1      Cu     0.358060000000     0.250000000000     0.891940000000     0          
O1       O      0.343915000000     0.274520000000     0.871015000000     0          
O2       O      0.328400000000     0.250000000000     0.921600000000     0          
C2s      C      0.440450000000     0.059550000000     0.750000000000     0          
Cu1      Cu     0.250000000000     0.141940000000     0.608060000000     0          
O1       O      0.225480000000     0.156085000000     0.628985000000     0          
O2       O      0.250000000000     0.171600000000     0.578400000000     0          
Cu1      Cu     0.358060000000     0.250000000000     0.608060000000     0          
O1       O      0.343915000000     0.225480000000     0.628985000000     0          
O2       O      0.328400000000     0.250000000000     0.578400000000     0          
Cu1      Cu     0.250000000000     0.358060000000     0.608060000000     0          
O1       O      0.274520000000     0.343915000000     0.628985000000     0          
O2       O      0.250000000000     0.328400000000     0.578400000000     0          
Cu1      Cu     0.141940000000     0.250000000000     0.608060000000     0          
O1       O      0.156085000000     0.274520000000     0.628985000000     0          
O2       O      0.171600000000     0.250000000000     0.578400000000     0          
O1       O      0.121015000000     0.225480000000     0.593915000000     0          
O1       O      0.121015000000     0.274520000000     0.906085000000     0          
O1       O      0.225480000000     0.121015000000     0.906085000000     0          
O1       O      0.378985000000     0.225480000000     0.906085000000     0          
O1       O      0.274520000000     0.378985000000     0.906085000000     0          
O1       O      0.378985000000     0.274520000000     0.593915000000     0          
O1       O      0.225480000000     0.378985000000     0.593915000000     0          
O1       O      0.274520000000     0.121015000000     0.593915000000     0          
O1       O      0.156085000000     0.378985000000     0.524520000000     0          
O1       O      0.121015000000     0.156085000000     0.524520000000     0          
O1       O      0.343915000000     0.121015000000     0.524520000000     0          
O1       O      0.378985000000     0.343915000000     0.524520000000     0          
O1       O      0.156085000000     0.121015000000     0.975480000000     0          
O1       O      0.378985000000     0.156085000000     0.975480000000     0          
O1       O      0.343915000000     0.378985000000     0.975480000000     0          
O1       O      0.121015000000     0.343915000000     0.975480000000     0          
O1       O      0.274520000000     0.156085000000     0.628985000000     0          
O1       O      0.343915000000     0.274520000000     0.628985000000     0          
O1       O      0.225480000000     0.343915000000     0.628985000000     0          
O1       O      0.156085000000     0.225480000000     0.628985000000     0          
O1       O      0.274520000000     0.343915000000     0.871015000000     0          
O1       O      0.156085000000     0.274520000000     0.871015000000     0          
O1       O      0.225480000000     0.156085000000     0.871015000000     0          
O1       O      0.343915000000     0.225480000000     0.871015000000     0          
O1       O      0.378985000000     0.274520000000     0.906085000000     0          
O1       O      0.378985000000     0.225480000000     0.593915000000     0          
O1       O      0.274520000000     0.378985000000     0.593915000000     0          
O1       O      0.121015000000     0.274520000000     0.593915000000     0          
O1       O      0.225480000000     0.121015000000     0.593915000000     0          
O1       O      0.121015000000     0.225480000000     0.906085000000     0          
O1       O      0.274520000000     0.121015000000     0.906085000000     0          
O1       O      0.225480000000     0.378985000000     0.906085000000     0          
Cu1      Cu     0.108060000000     0.891940000000     0.000000000000     0          
O1       O      0.093915000000     0.871015000000     0.475480000000     0          
O2       O      0.078400000000     0.921600000000     0.000000000000     0          
C1       C      0.102205000000     0.852205000000     0.465040000000     0          
C2       C      0.090560000000     0.840560000000     0.441890000000     0          
C3       C      0.101380000000     0.818925000000     0.431075000000     0          
H1       H      0.115505000000     0.811866500000     0.438133500000     0          
C1s      C      0.079350000000     0.579350000000     0.079350000000     0          
C2s      C      0.190450000000     0.750000000000     0.190450000000     0          
Cu1      Cu     0.108060000000     0.608060000000     0.000000000000     0          
O1       O      0.128985000000     0.593915000000     0.475480000000     0          
O2       O      0.078400000000     0.578400000000     0.000000000000     0          
C1       C      0.147795000000     0.602205000000     0.465040000000     0          
C2       C      0.159440000000     0.590560000000     0.441890000000     0          
C3       C      0.181075000000     0.601380000000     0.431075000000     0          
H1       H      0.188133500000     0.615505000000     0.438133500000     0          
C1s      C      0.420650000000     0.579350000000     0.079350000000     0          
C2s      C      0.250000000000     0.690450000000     0.190450000000     0          
Cu1      Cu     0.391940000000     0.608060000000     0.000000000000     0          
O1       O      0.406085000000     0.628985000000     0.475480000000     0          
O2       O      0.421600000000     0.578400000000     0.000000000000     0          
C1       C      0.397795000000     0.647795000000     0.465040000000     0          
C2       C      0.409440000000     0.659440000000     0.441890000000     0          
C3       C      0.398620000000     0.681075000000     0.431075000000     0          
H1       H      0.384495000000     0.688133500000     0.438133500000     0          
C1s      C      0.420650000000     0.920650000000     0.079350000000     0          
C2s      C      0.309550000000     0.750000000000     0.190450000000     0          
Cu1      Cu     0.391940000000     0.891940000000     0.000000000000     0          
O1       O      0.371015000000     0.906085000000     0.475480000000     0          
O2       O      0.421600000000     0.921600000000     0.000000000000     0          
C1       C      0.352205000000     0.897795000000     0.465040000000     0          
C2       C      0.340560000000     0.909440000000     0.441890000000     0          
C3       C      0.318925000000     0.898620000000     0.431075000000     0          
H1       H      0.311866500000     0.884495000000     0.438133500000     0          
C1s      C      0.079350000000     0.920650000000     0.079350000000     0          
C2s      C      0.250000000000     0.809550000000     0.190450000000     0          
O1       O      0.093915000000     0.628985000000     0.024520000000     0          
C1       C      0.102205000000     0.647795000000     0.034960000000     0          
C2       C      0.090560000000     0.659440000000     0.058110000000     0          
C3       C      0.101380000000     0.681075000000     0.068925000000     0          
H1       H      0.115505000000     0.688133500000     0.061866500000     0          
C1s      C      0.079350000000     0.920650000000     0.420650000000     0          
C2s      C      0.190450000000     0.750000000000     0.309550000000     0          
O1       O      0.371015000000     0.593915000000     0.024520000000     0          
C1       C      0.352205000000     0.602205000000     0.034960000000     0          
C2       C      0.340560000000     0.590560000000     0.058110000000     0          
C3       C      0.318925000000     0.601380000000     0.068925000000     0          
H1       H      0.311866500000     0.615505000000     0.061866500000     0          
C1s      C      0.079350000000     0.579350000000     0.420650000000     0          
C2s      C      0.250000000000     0.690450000000     0.309550000000     0          
O1       O      0.406085000000     0.871015000000     0.024520000000     0          
C1       C      0.397795000000     0.852205000000     0.034960000000     0          
C2       C      0.409440000000     0.840560000000     0.058110000000     0          
C3       C      0.398620000000     0.818925000000     0.068925000000     0          
H1       H      0.384495000000     0.811866500000     0.061866500000     0          
C1s      C      0.420650000000     0.579350000000     0.420650000000     0          
C2s      C      0.309550000000     0.750000000000     0.309550000000     0          
O1       O      0.128985000000     0.906085000000     0.024520000000     0          
C1       C      0.147795000000     0.897795000000     0.034960000000     0          
C2       C      0.159440000000     0.909440000000     0.058110000000     0          
C3       C      0.181075000000     0.898620000000     0.068925000000     0          
H1       H      0.188133500000     0.884495000000     0.061866500000     0          
C1s      C      0.420650000000     0.920650000000     0.420650000000     0          
C2s      C      0.250000000000     0.809550000000     0.309550000000     0          
Cu1      Cu     0.000000000000     0.608060000000     0.391940000000     0          
O1       O      0.475480000000     0.593915000000     0.371015000000     0          
O2       O      0.000000000000     0.578400000000     0.421600000000     0          
C1       C      0.465040000000     0.602205000000     0.352205000000     0          
C2       C      0.441890000000     0.590560000000     0.340560000000     0          
C3       C      0.431075000000     0.601380000000     0.318925000000     0          
H1       H      0.438133500000     0.615505000000     0.311866500000     0          
C2s      C      0.190450000000     0.690450000000     0.250000000000     0          
Cu1      Cu     0.391940000000     0.500000000000     0.391940000000     0          
O1       O      0.406085000000     0.975480000000     0.371015000000     0          
O2       O      0.421600000000     0.500000000000     0.421600000000     0          
C1       C      0.397795000000     0.965040000000     0.352205000000     0          
C2       C      0.409440000000     0.941890000000     0.340560000000     0          
C3       C      0.398620000000     0.931075000000     0.318925000000     0          
H1       H      0.384495000000     0.938133500000     0.311866500000     0          
C2s      C      0.309550000000     0.690450000000     0.250000000000     0          
Cu1      Cu     0.000000000000     0.891940000000     0.391940000000     0          
O1       O      0.024520000000     0.906085000000     0.371015000000     0          
O2       O      0.000000000000     0.921600000000     0.421600000000     0          
C1       C      0.034960000000     0.897795000000     0.352205000000     0          
C2       C      0.058110000000     0.909440000000     0.340560000000     0          
C3       C      0.068925000000     0.898620000000     0.318925000000     0          
H1       H      0.061866500000     0.884495000000     0.311866500000     0          
C2s      C      0.309550000000     0.809550000000     0.250000000000     0          
Cu1      Cu     0.108060000000     0.500000000000     0.391940000000     0          
O1       O      0.093915000000     0.524520000000     0.371015000000     0          
O2       O      0.078400000000     0.500000000000     0.421600000000     0          
C1       C      0.102205000000     0.534960000000     0.352205000000     0          
C2       C      0.090560000000     0.558110000000     0.340560000000     0          
C3       C      0.101380000000     0.568925000000     0.318925000000     0          
H1       H      0.115505000000     0.561866500000     0.311866500000     0          
C2s      C      0.190450000000     0.809550000000     0.250000000000     0          
Cu1      Cu     0.000000000000     0.891940000000     0.108060000000     0          
O1       O      0.475480000000     0.906085000000     0.128985000000     0          
O2       O      0.000000000000     0.921600000000     0.078400000000     0          
C1       C      0.465040000000     0.897795000000     0.147795000000     0          
C2       C      0.441890000000     0.909440000000     0.159440000000     0          
C3       C      0.431075000000     0.898620000000     0.181075000000     0          
H1       H      0.438133500000     0.884495000000     0.188133500000     0          
Cu1      Cu     0.108060000000     0.500000000000     0.108060000000     0          
O1       O      0.093915000000     0.975480000000     0.128985000000     0          
O2       O      0.078400000000     0.500000000000     0.078400000000     0          
C1       C      0.102205000000     0.965040000000     0.147795000000     0          
C2       C      0.090560000000     0.941890000000     0.159440000000     0          
C3       C      0.101380000000     0.931075000000     0.181075000000     0          
H1       H      0.115505000000     0.938133500000     0.188133500000     0          
Cu1      Cu     0.000000000000     0.608060000000     0.108060000000     0          
O1       O      0.024520000000     0.593915000000     0.128985000000     0          
O2       O      0.000000000000     0.578400000000     0.078400000000     0          
C1       C      0.034960000000     0.602205000000     0.147795000000     0          
C2       C      0.058110000000     0.590560000000     0.159440000000     0          
C3       C      0.068925000000     0.601380000000     0.181075000000     0          
H1       H      0.061866500000     0.615505000000     0.188133500000     0          
Cu1      Cu     0.391940000000     0.500000000000     0.108060000000     0          
O1       O      0.406085000000     0.524520000000     0.128985000000     0          
O2       O      0.421600000000     0.500000000000     0.078400000000     0          
C1       C      0.397795000000     0.534960000000     0.147795000000     0          
C2       C      0.409440000000     0.558110000000     0.159440000000     0          
C3       C      0.398620000000     0.568925000000     0.181075000000     0          
H1       H      0.384495000000     0.561866500000     0.188133500000     0          
O1       O      0.371015000000     0.975480000000     0.093915000000     0          
C1       C      0.352205000000     0.965040000000     0.102205000000     0          
C2       C      0.340560000000     0.941890000000     0.090560000000     0          
C3       C      0.318925000000     0.931075000000     0.101380000000     0          
H1       H      0.311866500000     0.938133500000     0.115505000000     0          
O1       O      0.371015000000     0.524520000000     0.406085000000     0          
C1       C      0.352205000000     0.534960000000     0.397795000000     0          
C2       C      0.340560000000     0.558110000000     0.409440000000     0          
C3       C      0.318925000000     0.568925000000     0.398620000000     0          
H1       H      0.311866500000     0.561866500000     0.384495000000     0          
O1       O      0.475480000000     0.871015000000     0.406085000000     0          
C1       C      0.465040000000     0.852205000000     0.397795000000     0          
C2       C      0.441890000000     0.840560000000     0.409440000000     0          
C3       C      0.431075000000     0.818925000000     0.398620000000     0          
H1       H      0.438133500000     0.811866500000     0.384495000000     0          
O1       O      0.128985000000     0.975480000000     0.406085000000     0          
C1       C      0.147795000000     0.965040000000     0.397795000000     0          
C2       C      0.159440000000     0.941890000000     0.409440000000     0          
C3       C      0.181075000000     0.931075000000     0.398620000000     0          
H1       H      0.188133500000     0.938133500000     0.384495000000     0          
O1       O      0.024520000000     0.628985000000     0.406085000000     0          
C1       C      0.034960000000     0.647795000000     0.397795000000     0          
C2       C      0.058110000000     0.659440000000     0.409440000000     0          
C3       C      0.068925000000     0.681075000000     0.398620000000     0          
H1       H      0.061866500000     0.688133500000     0.384495000000     0          
O1       O      0.128985000000     0.524520000000     0.093915000000     0          
C1       C      0.147795000000     0.534960000000     0.102205000000     0          
C2       C      0.159440000000     0.558110000000     0.090560000000     0          
C3       C      0.181075000000     0.568925000000     0.101380000000     0          
H1       H      0.188133500000     0.561866500000     0.115505000000     0          
O1       O      0.475480000000     0.628985000000     0.093915000000     0          
C1       C      0.465040000000     0.647795000000     0.102205000000     0          
C2       C      0.441890000000     0.659440000000     0.090560000000     0          
C3       C      0.431075000000     0.681075000000     0.101380000000     0          
H1       H      0.438133500000     0.688133500000     0.115505000000     0          
O1       O      0.024520000000     0.871015000000     0.093915000000     0          
C1       C      0.034960000000     0.852205000000     0.102205000000     0          
C2       C      0.058110000000     0.840560000000     0.090560000000     0          
C3       C      0.068925000000     0.818925000000     0.101380000000     0          
H1       H      0.061866500000     0.811866500000     0.115505000000     0          
O1       O      0.406085000000     0.628985000000     0.024520000000     0          
C1       C      0.397795000000     0.647795000000     0.034960000000     0          
C2       C      0.409440000000     0.659440000000     0.058110000000     0          
C3       C      0.398620000000     0.681075000000     0.068925000000     0          
H1       H      0.384495000000     0.688133500000     0.061866500000     0          
O1       O      0.371015000000     0.906085000000     0.024520000000     0          
C1       C      0.352205000000     0.897795000000     0.034960000000     0          
C2       C      0.340560000000     0.909440000000     0.058110000000     0          
C3       C      0.318925000000     0.898620000000     0.068925000000     0          
H1       H      0.311866500000     0.884495000000     0.061866500000     0          
O1       O      0.093915000000     0.871015000000     0.024520000000     0          
C1       C      0.102205000000     0.852205000000     0.034960000000     0          
C2       C      0.090560000000     0.840560000000     0.058110000000     0          
C3       C      0.101380000000     0.818925000000     0.068925000000     0          
H1       H      0.115505000000     0.811866500000     0.061866500000     0          
O1       O      0.128985000000     0.593915000000     0.024520000000     0          
C1       C      0.147795000000     0.602205000000     0.034960000000     0          
C2       C      0.159440000000     0.590560000000     0.058110000000     0          
C3       C      0.181075000000     0.601380000000     0.068925000000     0          
H1       H      0.188133500000     0.615505000000     0.061866500000     0          
O1       O      0.406085000000     0.871015000000     0.475480000000     0          
C1       C      0.397795000000     0.852205000000     0.465040000000     0          
C2       C      0.409440000000     0.840560000000     0.441890000000     0          
C3       C      0.398620000000     0.818925000000     0.431075000000     0          
H1       H      0.384495000000     0.811866500000     0.438133500000     0          
O1       O      0.128985000000     0.906085000000     0.475480000000     0          
C1       C      0.147795000000     0.897795000000     0.465040000000     0          
C2       C      0.159440000000     0.909440000000     0.441890000000     0          
C3       C      0.181075000000     0.898620000000     0.431075000000     0          
H1       H      0.188133500000     0.884495000000     0.438133500000     0          
O1       O      0.093915000000     0.628985000000     0.475480000000     0          
C1       C      0.102205000000     0.647795000000     0.465040000000     0          
C2       C      0.090560000000     0.659440000000     0.441890000000     0          
C3       C      0.101380000000     0.681075000000     0.431075000000     0          
H1       H      0.115505000000     0.688133500000     0.438133500000     0          
O1       O      0.371015000000     0.593915000000     0.475480000000     0          
C1       C      0.352205000000     0.602205000000     0.465040000000     0          
C2       C      0.340560000000     0.590560000000     0.441890000000     0          
C3       C      0.318925000000     0.601380000000     0.431075000000     0          
H1       H      0.311866500000     0.615505000000     0.438133500000     0          
O1       O      0.024520000000     0.906085000000     0.128985000000     0          
C1       C      0.034960000000     0.897795000000     0.147795000000     0          
C2       C      0.058110000000     0.909440000000     0.159440000000     0          
C3       C      0.068925000000     0.898620000000     0.181075000000     0          
H1       H      0.061866500000     0.884495000000     0.188133500000     0          
O1       O      0.093915000000     0.524520000000     0.128985000000     0          
C1       C      0.102205000000     0.534960000000     0.147795000000     0          
C2       C      0.090560000000     0.558110000000     0.159440000000     0          
C3       C      0.101380000000     0.568925000000     0.181075000000     0          
H1       H      0.115505000000     0.561866500000     0.188133500000     0          
O1       O      0.475480000000     0.593915000000     0.128985000000     0          
C1       C      0.465040000000     0.602205000000     0.147795000000     0          
C2       C      0.441890000000     0.590560000000     0.159440000000     0          
C3       C      0.431075000000     0.601380000000     0.181075000000     0          
H1       H      0.438133500000     0.615505000000     0.188133500000     0          
O1       O      0.406085000000     0.975480000000     0.128985000000     0          
C1       C      0.397795000000     0.965040000000     0.147795000000     0          
C2       C      0.409440000000     0.941890000000     0.159440000000     0          
C3       C      0.398620000000     0.931075000000     0.181075000000     0          
H1       H      0.384495000000     0.938133500000     0.188133500000     0          
O1       O      0.024520000000     0.593915000000     0.371015000000     0          
C1       C      0.034960000000     0.602205000000     0.352205000000     0          
C2       C      0.058110000000     0.590560000000     0.340560000000     0          
C3       C      0.068925000000     0.601380000000     0.318925000000     0          
H1       H      0.061866500000     0.615505000000     0.311866500000     0          
O1       O      0.406085000000     0.524520000000     0.371015000000     0          
C1       C      0.397795000000     0.534960000000     0.352205000000     0          
C2       C      0.409440000000     0.558110000000     0.340560000000     0          
C3       C      0.398620000000     0.568925000000     0.318925000000     0          
H1       H      0.384495000000     0.561866500000     0.311866500000     0          
O1       O      0.475480000000     0.906085000000     0.371015000000     0          
C1       C      0.465040000000     0.897795000000     0.352205000000     0          
C2       C      0.441890000000     0.909440000000     0.340560000000     0          
C3       C      0.431075000000     0.898620000000     0.318925000000     0          
H1       H      0.438133500000     0.884495000000     0.311866500000     0          
O1       O      0.093915000000     0.975480000000     0.371015000000     0          
C1       C      0.102205000000     0.965040000000     0.352205000000     0          
C2       C      0.090560000000     0.941890000000     0.340560000000     0          
C3       C      0.101380000000     0.931075000000     0.318925000000     0          
H1       H      0.115505000000     0.938133500000     0.311866500000     0          
O1       O      0.128985000000     0.524520000000     0.406085000000     0          
C1       C      0.147795000000     0.534960000000     0.397795000000     0          
C2       C      0.159440000000     0.558110000000     0.409440000000     0          
C3       C      0.181075000000     0.568925000000     0.398620000000     0          
H1       H      0.188133500000     0.561866500000     0.384495000000     0          
O1       O      0.128985000000     0.975480000000     0.093915000000     0          
C1       C      0.147795000000     0.965040000000     0.102205000000     0          
C2       C      0.159440000000     0.941890000000     0.090560000000     0          
C3       C      0.181075000000     0.931075000000     0.101380000000     0          
H1       H      0.188133500000     0.938133500000     0.115505000000     0          
O1       O      0.024520000000     0.628985000000     0.093915000000     0          
C1       C      0.034960000000     0.647795000000     0.102205000000     0          
C2       C      0.058110000000     0.659440000000     0.090560000000     0          
C3       C      0.068925000000     0.681075000000     0.101380000000     0          
H1       H      0.061866500000     0.688133500000     0.115505000000     0          
O1       O      0.371015000000     0.524520000000     0.093915000000     0          
C1       C      0.352205000000     0.534960000000     0.102205000000     0          
C2       C      0.340560000000     0.558110000000     0.090560000000     0          
C3       C      0.318925000000     0.568925000000     0.101380000000     0          
H1       H      0.311866500000     0.561866500000     0.115505000000     0          
O1       O      0.475480000000     0.871015000000     0.093915000000     0          
C1       C      0.465040000000     0.852205000000     0.102205000000     0          
C2       C      0.441890000000     0.840560000000     0.090560000000     0          
C3       C      0.431075000000     0.818925000000     0.101380000000     0          
H1       H      0.438133500000     0.811866500000     0.115505000000     0          
O1       O      0.371015000000     0.975480000000     0.406085000000     0          
C1       C      0.352205000000     0.965040000000     0.397795000000     0          
C2       C      0.340560000000     0.941890000000     0.409440000000     0          
C3       C      0.318925000000     0.931075000000     0.398620000000     0          
H1       H      0.311866500000     0.938133500000     0.384495000000     0          
O1       O      0.024520000000     0.871015000000     0.406085000000     0          
C1       C      0.034960000000     0.852205000000     0.397795000000     0          
C2       C      0.058110000000     0.840560000000     0.409440000000     0          
C3       C      0.068925000000     0.818925000000     0.398620000000     0          
H1       H      0.061866500000     0.811866500000     0.384495000000     0          
O1       O      0.475480000000     0.628985000000     0.406085000000     0          
C1       C      0.465040000000     0.647795000000     0.397795000000     0          
C2       C      0.441890000000     0.659440000000     0.409440000000     0          
C3       C      0.431075000000     0.681075000000     0.398620000000     0          
H1       H      0.438133500000     0.688133500000     0.384495000000     0          
Cu1      Cu     0.108060000000     0.641940000000     0.250000000000     0          
O1       O      0.093915000000     0.621015000000     0.225480000000     0          
O2       O      0.078400000000     0.671600000000     0.250000000000     0          
C1       C      0.102205000000     0.602205000000     0.215040000000     0          
C2       C      0.090560000000     0.590560000000     0.191890000000     0          
C1s      C      0.079350000000     0.829350000000     0.329350000000     0          
C2s      C      0.190450000000     0.500000000000     0.440450000000     0          
Cu1      Cu     0.108060000000     0.858060000000     0.250000000000     0          
O1       O      0.128985000000     0.843915000000     0.225480000000     0          
O2       O      0.078400000000     0.828400000000     0.250000000000     0          
C1       C      0.147795000000     0.852205000000     0.215040000000     0          
C2       C      0.159440000000     0.840560000000     0.191890000000     0          
C3       C      0.181075000000     0.851380000000     0.181075000000     0          
H1       H      0.188133500000     0.865505000000     0.188133500000     0          
C1s      C      0.420650000000     0.829350000000     0.329350000000     0          
C2s      C      0.250000000000     0.940450000000     0.440450000000     0          
Cu1      Cu     0.391940000000     0.858060000000     0.250000000000     0          
O1       O      0.406085000000     0.878985000000     0.225480000000     0          
O2       O      0.421600000000     0.828400000000     0.250000000000     0          
C1       C      0.397795000000     0.897795000000     0.215040000000     0          
C2       C      0.409440000000     0.909440000000     0.191890000000     0          
C1s      C      0.420650000000     0.670650000000     0.329350000000     0          
C2s      C      0.309550000000     0.500000000000     0.440450000000     0          
Cu1      Cu     0.391940000000     0.641940000000     0.250000000000     0          
O1       O      0.371015000000     0.656085000000     0.225480000000     0          
O2       O      0.421600000000     0.671600000000     0.250000000000     0          
C1       C      0.352205000000     0.647795000000     0.215040000000     0          
C2       C      0.340560000000     0.659440000000     0.191890000000     0          
C3       C      0.318925000000     0.648620000000     0.181075000000     0          
H1       H      0.311866500000     0.634495000000     0.188133500000     0          
C1s      C      0.079350000000     0.670650000000     0.329350000000     0          
C2s      C      0.250000000000     0.559550000000     0.440450000000     0          
O1       O      0.093915000000     0.878985000000     0.274520000000     0          
C1       C      0.102205000000     0.897795000000     0.284960000000     0          
C2       C      0.090560000000     0.909440000000     0.308110000000     0          
C1s      C      0.079350000000     0.670650000000     0.170650000000     0          
C2s      C      0.190450000000     0.500000000000     0.059550000000     0          
O1       O      0.371015000000     0.843915000000     0.274520000000     0          
C1       C      0.352205000000     0.852205000000     0.284960000000     0          
C2       C      0.340560000000     0.840560000000     0.308110000000     0          
C3       C      0.318925000000     0.851380000000     0.318925000000     0          
H1       H      0.311866500000     0.865505000000     0.311866500000     0          
C1s      C      0.079350000000     0.829350000000     0.170650000000     0          
C2s      C      0.250000000000     0.940450000000     0.059550000000     0          
O1       O      0.406085000000     0.621015000000     0.274520000000     0          
C1       C      0.397795000000     0.602205000000     0.284960000000     0          
C2       C      0.409440000000     0.590560000000     0.308110000000     0          
C1s      C      0.420650000000     0.829350000000     0.170650000000     0          
C2s      C      0.309550000000     0.500000000000     0.059550000000     0          
O1       O      0.128985000000     0.656085000000     0.274520000000     0          
C1       C      0.147795000000     0.647795000000     0.284960000000     0          
C2       C      0.159440000000     0.659440000000     0.308110000000     0          
C3       C      0.181075000000     0.648620000000     0.318925000000     0          
H1       H      0.188133500000     0.634495000000     0.311866500000     0          
C1s      C      0.420650000000     0.670650000000     0.170650000000     0          
C2s      C      0.250000000000     0.559550000000     0.059550000000     0          
Cu1      Cu     0.000000000000     0.858060000000     0.141940000000     0          
O1       O      0.475480000000     0.843915000000     0.121015000000     0          
O2       O      0.000000000000     0.828400000000     0.171600000000     0          
C3       C      0.431075000000     0.851380000000     0.068925000000     0          
H1       H      0.438133500000     0.865505000000     0.061866500000     0          
C2s      C      0.190450000000     0.940450000000     0.000000000000     0          
Cu1      Cu     0.391940000000     0.750000000000     0.141940000000     0          
O1       O      0.406085000000     0.725480000000     0.121015000000     0          
O2       O      0.421600000000     0.750000000000     0.171600000000     0          
C1       C      0.397795000000     0.715040000000     0.102205000000     0          
C2       C      0.409440000000     0.691890000000     0.090560000000     0          
C2s      C      0.309550000000     0.940450000000     0.000000000000     0          
Cu1      Cu     0.000000000000     0.641940000000     0.141940000000     0          
O1       O      0.024520000000     0.656085000000     0.121015000000     0          
O2       O      0.000000000000     0.671600000000     0.171600000000     0          
C3       C      0.068925000000     0.648620000000     0.068925000000     0          
H1       H      0.061866500000     0.634495000000     0.061866500000     0          
C2s      C      0.309550000000     0.559550000000     0.000000000000     0          
Cu1      Cu     0.108060000000     0.750000000000     0.141940000000     0          
O1       O      0.093915000000     0.774520000000     0.121015000000     0          
O2       O      0.078400000000     0.750000000000     0.171600000000     0          
C1       C      0.102205000000     0.784960000000     0.102205000000     0          
C2       C      0.090560000000     0.808110000000     0.090560000000     0          
C2s      C      0.190450000000     0.559550000000     0.000000000000     0          
Cu1      Cu     0.000000000000     0.641940000000     0.358060000000     0          
O1       O      0.475480000000     0.656085000000     0.378985000000     0          
O2       O      0.000000000000     0.671600000000     0.328400000000     0          
C3       C      0.431075000000     0.648620000000     0.431075000000     0          
H1       H      0.438133500000     0.634495000000     0.438133500000     0          
Cu1      Cu     0.108060000000     0.750000000000     0.358060000000     0          
O1       O      0.093915000000     0.725480000000     0.378985000000     0          
O2       O      0.078400000000     0.750000000000     0.328400000000     0          
C1       C      0.102205000000     0.715040000000     0.397795000000     0          
C2       C      0.090560000000     0.691890000000     0.409440000000     0          
Cu1      Cu     0.000000000000     0.858060000000     0.358060000000     0          
O1       O      0.024520000000     0.843915000000     0.378985000000     0          
O2       O      0.000000000000     0.828400000000     0.328400000000     0          
C3       C      0.068925000000     0.851380000000     0.431075000000     0          
H1       H      0.061866500000     0.865505000000     0.438133500000     0          
Cu1      Cu     0.391940000000     0.750000000000     0.358060000000     0          
O1       O      0.406085000000     0.774520000000     0.378985000000     0          
O2       O      0.421600000000     0.750000000000     0.328400000000     0          
C1       C      0.397795000000     0.784960000000     0.397795000000     0          
C2       C      0.409440000000     0.808110000000     0.409440000000     0          
O1       O      0.371015000000     0.725480000000     0.343915000000     0          
C1       C      0.352205000000     0.715040000000     0.352205000000     0          
C2       C      0.340560000000     0.691890000000     0.340560000000     0          
C3       C      0.318925000000     0.681075000000     0.351380000000     0          
H1       H      0.311866500000     0.688133500000     0.365505000000     0          
O1       O      0.371015000000     0.774520000000     0.156085000000     0          
C1       C      0.352205000000     0.784960000000     0.147795000000     0          
C2       C      0.340560000000     0.808110000000     0.159440000000     0          
C3       C      0.318925000000     0.818925000000     0.148620000000     0          
H1       H      0.311866500000     0.811866500000     0.134495000000     0          
O1       O      0.475480000000     0.621015000000     0.156085000000     0          
C3       C      0.431075000000     0.568925000000     0.148620000000     0          
H1       H      0.438133500000     0.561866500000     0.134495000000     0          
O1       O      0.128985000000     0.725480000000     0.156085000000     0          
C1       C      0.147795000000     0.715040000000     0.147795000000     0          
C2       C      0.159440000000     0.691890000000     0.159440000000     0          
C3       C      0.181075000000     0.681075000000     0.148620000000     0          
H1       H      0.188133500000     0.688133500000     0.134495000000     0          
O1       O      0.024520000000     0.878985000000     0.156085000000     0          
C3       C      0.068925000000     0.931075000000     0.148620000000     0          
H1       H      0.061866500000     0.938133500000     0.134495000000     0          
O1       O      0.128985000000     0.774520000000     0.343915000000     0          
C1       C      0.147795000000     0.784960000000     0.352205000000     0          
C2       C      0.159440000000     0.808110000000     0.340560000000     0          
C3       C      0.181075000000     0.818925000000     0.351380000000     0          
H1       H      0.188133500000     0.811866500000     0.365505000000     0          
O1       O      0.475480000000     0.878985000000     0.343915000000     0          
C3       C      0.431075000000     0.931075000000     0.351380000000     0          
H1       H      0.438133500000     0.938133500000     0.365505000000     0          
O1       O      0.024520000000     0.621015000000     0.343915000000     0          
C3       C      0.068925000000     0.568925000000     0.351380000000     0          
H1       H      0.061866500000     0.561866500000     0.365505000000     0          
O1       O      0.406085000000     0.878985000000     0.274520000000     0          
C1       C      0.397795000000     0.897795000000     0.284960000000     0          
C2       C      0.409440000000     0.909440000000     0.308110000000     0          
O1       O      0.371015000000     0.656085000000     0.274520000000     0          
C1       C      0.352205000000     0.647795000000     0.284960000000     0          
C2       C      0.340560000000     0.659440000000     0.308110000000     0          
C3       C      0.318925000000     0.648620000000     0.318925000000     0          
H1       H      0.311866500000     0.634495000000     0.311866500000     0          
O1       O      0.093915000000     0.621015000000     0.274520000000     0          
C1       C      0.102205000000     0.602205000000     0.284960000000     0          
C2       C      0.090560000000     0.590560000000     0.308110000000     0          
O1       O      0.128985000000     0.843915000000     0.274520000000     0          
C1       C      0.147795000000     0.852205000000     0.284960000000     0          
C2       C      0.159440000000     0.840560000000     0.308110000000     0          
C3       C      0.181075000000     0.851380000000     0.318925000000     0          
H1       H      0.188133500000     0.865505000000     0.311866500000     0          
O1       O      0.406085000000     0.621015000000     0.225480000000     0          
C1       C      0.397795000000     0.602205000000     0.215040000000     0          
C2       C      0.409440000000     0.590560000000     0.191890000000     0          
O1       O      0.128985000000     0.656085000000     0.225480000000     0          
C1       C      0.147795000000     0.647795000000     0.215040000000     0          
C2       C      0.159440000000     0.659440000000     0.191890000000     0          
C3       C      0.181075000000     0.648620000000     0.181075000000     0          
H1       H      0.188133500000     0.634495000000     0.188133500000     0          
O1       O      0.093915000000     0.878985000000     0.225480000000     0          
C1       C      0.102205000000     0.897795000000     0.215040000000     0          
C2       C      0.090560000000     0.909440000000     0.191890000000     0          
O1       O      0.371015000000     0.843915000000     0.225480000000     0          
C1       C      0.352205000000     0.852205000000     0.215040000000     0          
C2       C      0.340560000000     0.840560000000     0.191890000000     0          
C3       C      0.318925000000     0.851380000000     0.181075000000     0          
H1       H      0.311866500000     0.865505000000     0.188133500000     0          
O1       O      0.024520000000     0.656085000000     0.378985000000     0          
C3       C      0.068925000000     0.648620000000     0.431075000000     0          
H1       H      0.061866500000     0.634495000000     0.438133500000     0          
O1       O      0.093915000000     0.774520000000     0.378985000000     0          
C1       C      0.102205000000     0.784960000000     0.397795000000     0          
C2       C      0.090560000000     0.808110000000     0.409440000000     0          
O1       O      0.475480000000     0.843915000000     0.378985000000     0          
C3       C      0.431075000000     0.851380000000     0.431075000000     0          
H1       H      0.438133500000     0.865505000000     0.438133500000     0          
O1       O      0.406085000000     0.725480000000     0.378985000000     0          
C1       C      0.397795000000     0.715040000000     0.397795000000     0          
C2       C      0.409440000000     0.691890000000     0.409440000000     0          
O1       O      0.024520000000     0.843915000000     0.121015000000     0          
C3       C      0.068925000000     0.851380000000     0.068925000000     0          
H1       H      0.061866500000     0.865505000000     0.061866500000     0          
O1       O      0.406085000000     0.774520000000     0.121015000000     0          
C1       C      0.397795000000     0.784960000000     0.102205000000     0          
C2       C      0.409440000000     0.808110000000     0.090560000000     0          
O1       O      0.475480000000     0.656085000000     0.121015000000     0          
C3       C      0.431075000000     0.648620000000     0.068925000000     0          
H1       H      0.438133500000     0.634495000000     0.061866500000     0          
O1       O      0.093915000000     0.725480000000     0.121015000000     0          
C1       C      0.102205000000     0.715040000000     0.102205000000     0          
C2       C      0.090560000000     0.691890000000     0.090560000000     0          
O1       O      0.128985000000     0.774520000000     0.156085000000     0          
C1       C      0.147795000000     0.784960000000     0.147795000000     0          
C2       C      0.159440000000     0.808110000000     0.159440000000     0          
C3       C      0.181075000000     0.818925000000     0.148620000000     0          
H1       H      0.188133500000     0.811866500000     0.134495000000     0          
O1       O      0.128985000000     0.725480000000     0.343915000000     0          
C1       C      0.147795000000     0.715040000000     0.352205000000     0          
C2       C      0.159440000000     0.691890000000     0.340560000000     0          
C3       C      0.181075000000     0.681075000000     0.351380000000     0          
H1       H      0.188133500000     0.688133500000     0.365505000000     0          
O1       O      0.024520000000     0.878985000000     0.343915000000     0          
C3       C      0.068925000000     0.931075000000     0.351380000000     0          
H1       H      0.061866500000     0.938133500000     0.365505000000     0          
O1       O      0.371015000000     0.774520000000     0.343915000000     0          
C1       C      0.352205000000     0.784960000000     0.352205000000     0          
C2       C      0.340560000000     0.808110000000     0.340560000000     0          
C3       C      0.318925000000     0.818925000000     0.351380000000     0          
H1       H      0.311866500000     0.811866500000     0.365505000000     0          
O1       O      0.475480000000     0.621015000000     0.343915000000     0          
C3       C      0.431075000000     0.568925000000     0.351380000000     0          
H1       H      0.438133500000     0.561866500000     0.365505000000     0          
O1       O      0.371015000000     0.725480000000     0.156085000000     0          
C1       C      0.352205000000     0.715040000000     0.147795000000     0          
C2       C      0.340560000000     0.691890000000     0.159440000000     0          
C3       C      0.318925000000     0.681075000000     0.148620000000     0          
H1       H      0.311866500000     0.688133500000     0.134495000000     0          
O1       O      0.024520000000     0.621015000000     0.156085000000     0          
C3       C      0.068925000000     0.568925000000     0.148620000000     0          
H1       H      0.061866500000     0.561866500000     0.134495000000     0          
O1       O      0.475480000000     0.878985000000     0.156085000000     0          
C3       C      0.431075000000     0.931075000000     0.148620000000     0          
H1       H      0.438133500000     0.938133500000     0.134495000000     0          
Cu1      Cu     0.358060000000     0.891940000000     0.250000000000     0          
O1       O      0.343915000000     0.871015000000     0.225480000000     0          
O2       O      0.328400000000     0.921600000000     0.250000000000     0          
C3       C      0.351380000000     0.818925000000     0.181075000000     0          
H1       H      0.365505000000     0.811866500000     0.188133500000     0          
C1s      C      0.329350000000     0.579350000000     0.329350000000     0          
C2s      C      0.440450000000     0.750000000000     0.440450000000     0          
Cu1      Cu     0.358060000000     0.608060000000     0.250000000000     0          
O1       O      0.378985000000     0.593915000000     0.225480000000     0          
O2       O      0.328400000000     0.578400000000     0.250000000000     0          
C1s      C      0.170650000000     0.579350000000     0.329350000000     0          
C2s      C      0.000000000000     0.690450000000     0.440450000000     0          
Cu1      Cu     0.141940000000     0.608060000000     0.250000000000     0          
O1       O      0.156085000000     0.628985000000     0.225480000000     0          
O2       O      0.171600000000     0.578400000000     0.250000000000     0          
C3       C      0.148620000000     0.681075000000     0.181075000000     0          
H1       H      0.134495000000     0.688133500000     0.188133500000     0          
C1s      C      0.170650000000     0.920650000000     0.329350000000     0          
C2s      C      0.059550000000     0.750000000000     0.440450000000     0          
Cu1      Cu     0.141940000000     0.891940000000     0.250000000000     0          
O1       O      0.121015000000     0.906085000000     0.225480000000     0          
O2       O      0.171600000000     0.921600000000     0.250000000000     0          
C1s      C      0.329350000000     0.920650000000     0.329350000000     0          
C2s      C      0.000000000000     0.809550000000     0.440450000000     0          
O1       O      0.343915000000     0.628985000000     0.274520000000     0          
C3       C      0.351380000000     0.681075000000     0.318925000000     0          
H1       H      0.365505000000     0.688133500000     0.311866500000     0          
C1s      C      0.329350000000     0.920650000000     0.170650000000     0          
C2s      C      0.440450000000     0.750000000000     0.059550000000     0          
O1       O      0.121015000000     0.593915000000     0.274520000000     0          
C1s      C      0.329350000000     0.579350000000     0.170650000000     0          
C2s      C      0.000000000000     0.690450000000     0.059550000000     0          
O1       O      0.156085000000     0.871015000000     0.274520000000     0          
C3       C      0.148620000000     0.818925000000     0.318925000000     0          
H1       H      0.134495000000     0.811866500000     0.311866500000     0          
C1s      C      0.170650000000     0.579350000000     0.170650000000     0          
C2s      C      0.059550000000     0.750000000000     0.059550000000     0          
O1       O      0.378985000000     0.906085000000     0.274520000000     0          
C1s      C      0.170650000000     0.920650000000     0.170650000000     0          
C2s      C      0.000000000000     0.809550000000     0.059550000000     0          
Cu1      Cu     0.250000000000     0.608060000000     0.141940000000     0          
O1       O      0.225480000000     0.593915000000     0.121015000000     0          
O2       O      0.250000000000     0.578400000000     0.171600000000     0          
C1       C      0.215040000000     0.602205000000     0.102205000000     0          
C2       C      0.191890000000     0.590560000000     0.090560000000     0          
C2s      C      0.440450000000     0.690450000000     0.000000000000     0          
Cu1      Cu     0.141940000000     0.500000000000     0.141940000000     0          
O1       O      0.156085000000     0.975480000000     0.121015000000     0          
O2       O      0.171600000000     0.500000000000     0.171600000000     0          
C3       C      0.148620000000     0.931075000000     0.068925000000     0          
H1       H      0.134495000000     0.938133500000     0.061866500000     0          
C2s      C      0.059550000000     0.690450000000     0.000000000000     0          
Cu1      Cu     0.250000000000     0.891940000000     0.141940000000     0          
O1       O      0.274520000000     0.906085000000     0.121015000000     0          
O2       O      0.250000000000     0.921600000000     0.171600000000     0          
C1       C      0.284960000000     0.897795000000     0.102205000000     0          
C2       C      0.308110000000     0.909440000000     0.090560000000     0          
C2s      C      0.059550000000     0.809550000000     0.000000000000     0          
Cu1      Cu     0.358060000000     0.500000000000     0.141940000000     0          
O1       O      0.343915000000     0.524520000000     0.121015000000     0          
O2       O      0.328400000000     0.500000000000     0.171600000000     0          
C3       C      0.351380000000     0.568925000000     0.068925000000     0          
H1       H      0.365505000000     0.561866500000     0.061866500000     0          
C2s      C      0.440450000000     0.809550000000     0.000000000000     0          
Cu1      Cu     0.250000000000     0.891940000000     0.358060000000     0          
O1       O      0.225480000000     0.906085000000     0.378985000000     0          
O2       O      0.250000000000     0.921600000000     0.328400000000     0          
C1       C      0.215040000000     0.897795000000     0.397795000000     0          
C2       C      0.191890000000     0.909440000000     0.409440000000     0          
Cu1      Cu     0.358060000000     0.500000000000     0.358060000000     0          
O1       O      0.343915000000     0.975480000000     0.378985000000     0          
O2       O      0.328400000000     0.500000000000     0.328400000000     0          
C3       C      0.351380000000     0.931075000000     0.431075000000     0          
H1       H      0.365505000000     0.938133500000     0.438133500000     0          
Cu1      Cu     0.250000000000     0.608060000000     0.358060000000     0          
O1       O      0.274520000000     0.593915000000     0.378985000000     0          
O2       O      0.250000000000     0.578400000000     0.328400000000     0          
C1       C      0.284960000000     0.602205000000     0.397795000000     0          
C2       C      0.308110000000     0.590560000000     0.409440000000     0          
Cu1      Cu     0.141940000000     0.500000000000     0.358060000000     0          
O1       O      0.156085000000     0.524520000000     0.378985000000     0          
O2       O      0.171600000000     0.500000000000     0.328400000000     0          
C3       C      0.148620000000     0.568925000000     0.431075000000     0          
H1       H      0.134495000000     0.561866500000     0.438133500000     0          
O1       O      0.121015000000     0.975480000000     0.343915000000     0          
O1       O      0.121015000000     0.524520000000     0.156085000000     0          
O1       O      0.225480000000     0.871015000000     0.156085000000     0          
C1       C      0.215040000000     0.852205000000     0.147795000000     0          
C2       C      0.191890000000     0.840560000000     0.159440000000     0          
O1       O      0.378985000000     0.975480000000     0.156085000000     0          
O1       O      0.274520000000     0.628985000000     0.156085000000     0          
C1       C      0.284960000000     0.647795000000     0.147795000000     0          
C2       C      0.308110000000     0.659440000000     0.159440000000     0          
O1       O      0.378985000000     0.524520000000     0.343915000000     0          
O1       O      0.225480000000     0.628985000000     0.343915000000     0          
C1       C      0.215040000000     0.647795000000     0.352205000000     0          
C2       C      0.191890000000     0.659440000000     0.340560000000     0          
O1       O      0.274520000000     0.871015000000     0.343915000000     0          
C1       C      0.284960000000     0.852205000000     0.352205000000     0          
C2       C      0.308110000000     0.840560000000     0.340560000000     0          
O1       O      0.156085000000     0.628985000000     0.274520000000     0          
C3       C      0.148620000000     0.681075000000     0.318925000000     0          
H1       H      0.134495000000     0.688133500000     0.311866500000     0          
O1       O      0.121015000000     0.906085000000     0.274520000000     0          
O1       O      0.343915000000     0.871015000000     0.274520000000     0          
C3       C      0.351380000000     0.818925000000     0.318925000000     0          
H1       H      0.365505000000     0.811866500000     0.311866500000     0          
O1       O      0.378985000000     0.593915000000     0.274520000000     0          
O1       O      0.156085000000     0.871015000000     0.225480000000     0          
C3       C      0.148620000000     0.818925000000     0.181075000000     0          
H1       H      0.134495000000     0.811866500000     0.188133500000     0          
O1       O      0.378985000000     0.906085000000     0.225480000000     0          
O1       O      0.343915000000     0.628985000000     0.225480000000     0          
C3       C      0.351380000000     0.681075000000     0.181075000000     0          
H1       H      0.365505000000     0.688133500000     0.188133500000     0          
O1       O      0.121015000000     0.593915000000     0.225480000000     0          
O1       O      0.274520000000     0.906085000000     0.378985000000     0          
C1       C      0.284960000000     0.897795000000     0.397795000000     0          
C2       C      0.308110000000     0.909440000000     0.409440000000     0          
O1       O      0.343915000000     0.524520000000     0.378985000000     0          
C3       C      0.351380000000     0.568925000000     0.431075000000     0          
H1       H      0.365505000000     0.561866500000     0.438133500000     0          
O1       O      0.225480000000     0.593915000000     0.378985000000     0          
C1       C      0.215040000000     0.602205000000     0.397795000000     0          
C2       C      0.191890000000     0.590560000000     0.409440000000     0          
O1       O      0.156085000000     0.975480000000     0.378985000000     0          
C3       C      0.148620000000     0.931075000000     0.431075000000     0          
H1       H      0.134495000000     0.938133500000     0.438133500000     0          
O1       O      0.274520000000     0.593915000000     0.121015000000     0          
C1       C      0.284960000000     0.602205000000     0.102205000000     0          
C2       C      0.308110000000     0.590560000000     0.090560000000     0          
O1       O      0.156085000000     0.524520000000     0.121015000000     0          
C3       C      0.148620000000     0.568925000000     0.068925000000     0          
H1       H      0.134495000000     0.561866500000     0.061866500000     0          
O1       O      0.225480000000     0.906085000000     0.121015000000     0          
C1       C      0.215040000000     0.897795000000     0.102205000000     0          
C2       C      0.191890000000     0.909440000000     0.090560000000     0          
O1       O      0.343915000000     0.975480000000     0.121015000000     0          
C3       C      0.351380000000     0.931075000000     0.068925000000     0          
H1       H      0.365505000000     0.938133500000     0.061866500000     0          
O1       O      0.378985000000     0.524520000000     0.156085000000     0          
O1       O      0.378985000000     0.975480000000     0.343915000000     0          
O1       O      0.274520000000     0.628985000000     0.343915000000     0          
C1       C      0.284960000000     0.647795000000     0.352205000000     0          
C2       C      0.308110000000     0.659440000000     0.340560000000     0          
O1       O      0.121015000000     0.524520000000     0.343915000000     0          
O1       O      0.225480000000     0.871015000000     0.343915000000     0          
C1       C      0.215040000000     0.852205000000     0.352205000000     0          
C2       C      0.191890000000     0.840560000000     0.340560000000     0          
O1       O      0.121015000000     0.975480000000     0.156085000000     0          
O1       O      0.274520000000     0.871015000000     0.156085000000     0          
C1       C      0.284960000000     0.852205000000     0.147795000000     0          
C2       C      0.308110000000     0.840560000000     0.159440000000     0          
O1       O      0.225480000000     0.628985000000     0.156085000000     0          
C1       C      0.215040000000     0.647795000000     0.147795000000     0          
C2       C      0.191890000000     0.659440000000     0.159440000000     0          
Cu1      Cu     0.358060000000     0.641940000000     0.000000000000     0          
O1       O      0.343915000000     0.621015000000     0.475480000000     0          
O2       O      0.328400000000     0.671600000000     0.000000000000     0          
C1s      C      0.329350000000     0.829350000000     0.079350000000     0          
C2s      C      0.440450000000     0.500000000000     0.190450000000     0          
Cu1      Cu     0.358060000000     0.858060000000     0.000000000000     0          
O1       O      0.378985000000     0.843915000000     0.475480000000     0          
O2       O      0.328400000000     0.828400000000     0.000000000000     0          
C1s      C      0.170650000000     0.829350000000     0.079350000000     0          
C2s      C      0.000000000000     0.940450000000     0.190450000000     0          
Cu1      Cu     0.141940000000     0.858060000000     0.000000000000     0          
O1       O      0.156085000000     0.878985000000     0.475480000000     0          
O2       O      0.171600000000     0.828400000000     0.000000000000     0          
C1s      C      0.170650000000     0.670650000000     0.079350000000     0          
C2s      C      0.059550000000     0.500000000000     0.190450000000     0          
Cu1      Cu     0.141940000000     0.641940000000     0.000000000000     0          
O1       O      0.121015000000     0.656085000000     0.475480000000     0          
O2       O      0.171600000000     0.671600000000     0.000000000000     0          
C1s      C      0.329350000000     0.670650000000     0.079350000000     0          
C2s      C      0.000000000000     0.559550000000     0.190450000000     0          
O1       O      0.343915000000     0.878985000000     0.024520000000     0          
C1s      C      0.329350000000     0.670650000000     0.420650000000     0          
C2s      C      0.440450000000     0.500000000000     0.309550000000     0          
O1       O      0.121015000000     0.843915000000     0.024520000000     0          
C1s      C      0.329350000000     0.829350000000     0.420650000000     0          
C2s      C      0.000000000000     0.940450000000     0.309550000000     0          
O1       O      0.156085000000     0.621015000000     0.024520000000     0          
C1s      C      0.170650000000     0.829350000000     0.420650000000     0          
C2s      C      0.059550000000     0.500000000000     0.309550000000     0          
O1       O      0.378985000000     0.656085000000     0.024520000000     0          
C1s      C      0.170650000000     0.670650000000     0.420650000000     0          
C2s      C      0.000000000000     0.559550000000     0.309550000000     0          
Cu1      Cu     0.250000000000     0.858060000000     0.391940000000     0          
O1       O      0.225480000000     0.843915000000     0.371015000000     0          
O2       O      0.250000000000     0.828400000000     0.421600000000     0          
C2s      C      0.440450000000     0.940450000000     0.250000000000     0          
Cu1      Cu     0.141940000000     0.750000000000     0.391940000000     0          
O1       O      0.156085000000     0.725480000000     0.371015000000     0          
O2       O      0.171600000000     0.750000000000     0.421600000000     0          
C2s      C      0.059550000000     0.940450000000     0.250000000000     0          
Cu1      Cu     0.250000000000     0.641940000000     0.391940000000     0          
O1       O      0.274520000000     0.656085000000     0.371015000000     0          
O2       O      0.250000000000     0.671600000000     0.421600000000     0          
C2s      C      0.059550000000     0.559550000000     0.250000000000     0          
Cu1      Cu     0.358060000000     0.750000000000     0.391940000000     0          
O1       O      0.343915000000     0.774520000000     0.371015000000     0          
O2       O      0.328400000000     0.750000000000     0.421600000000     0          
C2s      C      0.440450000000     0.559550000000     0.250000000000     0          
Cu1      Cu     0.250000000000     0.641940000000     0.108060000000     0          
O1       O      0.225480000000     0.656085000000     0.128985000000     0          
O2       O      0.250000000000     0.671600000000     0.078400000000     0          
Cu1      Cu     0.358060000000     0.750000000000     0.108060000000     0          
O1       O      0.343915000000     0.725480000000     0.128985000000     0          
O2       O      0.328400000000     0.750000000000     0.078400000000     0          
Cu1      Cu     0.250000000000     0.858060000000     0.108060000000     0          
O1       O      0.274520000000     0.843915000000     0.128985000000     0          
O2       O      0.250000000000     0.828400000000     0.078400000000     0          
Cu1      Cu     0.141940000000     0.750000000000     0.108060000000     0          
O1       O      0.156085000000     0.774520000000     0.128985000000     0          
O2       O      0.171600000000     0.750000000000     0.078400000000     0          
O1       O      0.121015000000     0.725480000000     0.093915000000     0          
O1       O      0.121015000000     0.774520000000     0.406085000000     0          
O1       O      0.225480000000     0.621015000000     0.406085000000     0          
O1       O      0.378985000000     0.725480000000     0.406085000000     0          
O1       O      0.274520000000     0.878985000000     0.406085000000     0          
O1       O      0.378985000000     0.774520000000     0.093915000000     0          
O1       O      0.225480000000     0.878985000000     0.093915000000     0          
O1       O      0.274520000000     0.621015000000     0.093915000000     0          
O1       O      0.156085000000     0.878985000000     0.024520000000     0          
O1       O      0.121015000000     0.656085000000     0.024520000000     0          
O1       O      0.343915000000     0.621015000000     0.024520000000     0          
O1       O      0.378985000000     0.843915000000     0.024520000000     0          
O1       O      0.156085000000     0.621015000000     0.475480000000     0          
O1       O      0.378985000000     0.656085000000     0.475480000000     0          
O1       O      0.343915000000     0.878985000000     0.475480000000     0          
O1       O      0.121015000000     0.843915000000     0.475480000000     0          
O1       O      0.274520000000     0.656085000000     0.128985000000     0          
O1       O      0.343915000000     0.774520000000     0.128985000000     0          
O1       O      0.225480000000     0.843915000000     0.128985000000     0          
O1       O      0.156085000000     0.725480000000     0.128985000000     0          
O1       O      0.274520000000     0.843915000000     0.371015000000     0          
O1       O      0.156085000000     0.774520000000     0.371015000000     0          
O1       O      0.225480000000     0.656085000000     0.371015000000     0          
O1       O      0.343915000000     0.725480000000     0.371015000000     0          
O1       O      0.378985000000     0.774520000000     0.406085000000     0          
O1       O      0.378985000000     0.725480000000     0.093915000000     0          
O1       O      0.274520000000     0.878985000000     0.093915000000     0          
O1       O      0.121015000000     0.774520000000     0.093915000000     0          
O1       O      0.225480000000     0.621015000000     0.093915000000     0          
O1       O      0.121015000000     0.725480000000     0.406085000000     0          
O1       O      0.274520000000     0.621015000000     0.406085000000     0          
O1       O      0.225480000000     0.878985000000     0.406085000000     0          
Cu1      Cu     0.108060000000     0.891940000000     0.500000000000     0          
O1       O      0.093915000000     0.871015000000     0.975480000000     0          
O2       O      0.078400000000     0.921600000000     0.500000000000     0          
C1       C      0.102205000000     0.852205000000     0.965040000000     0          
C2       C      0.090560000000     0.840560000000     0.941890000000     0          
C3       C      0.101380000000     0.818925000000     0.931075000000     0          
H1       H      0.115505000000     0.811866500000     0.938133500000     0          
C1s      C      0.079350000000     0.579350000000     0.579350000000     0          
C2s      C      0.190450000000     0.750000000000     0.690450000000     0          
Cu1      Cu     0.108060000000     0.608060000000     0.500000000000     0          
O1       O      0.128985000000     0.593915000000     0.975480000000     0          
O2       O      0.078400000000     0.578400000000     0.500000000000     0          
C1       C      0.147795000000     0.602205000000     0.965040000000     0          
C2       C      0.159440000000     0.590560000000     0.941890000000     0          
C3       C      0.181075000000     0.601380000000     0.931075000000     0          
H1       H      0.188133500000     0.615505000000     0.938133500000     0          
C1s      C      0.420650000000     0.579350000000     0.579350000000     0          
C2s      C      0.250000000000     0.690450000000     0.690450000000     0          
Cu1      Cu     0.391940000000     0.608060000000     0.500000000000     0          
O1       O      0.406085000000     0.628985000000     0.975480000000     0          
O2       O      0.421600000000     0.578400000000     0.500000000000     0          
C1       C      0.397795000000     0.647795000000     0.965040000000     0          
C2       C      0.409440000000     0.659440000000     0.941890000000     0          
C3       C      0.398620000000     0.681075000000     0.931075000000     0          
H1       H      0.384495000000     0.688133500000     0.938133500000     0          
C1s      C      0.420650000000     0.920650000000     0.579350000000     0          
C2s      C      0.309550000000     0.750000000000     0.690450000000     0          
Cu1      Cu     0.391940000000     0.891940000000     0.500000000000     0          
O1       O      0.371015000000     0.906085000000     0.975480000000     0          
O2       O      0.421600000000     0.921600000000     0.500000000000     0          
C1       C      0.352205000000     0.897795000000     0.965040000000     0          
C2       C      0.340560000000     0.909440000000     0.941890000000     0          
C3       C      0.318925000000     0.898620000000     0.931075000000     0          
H1       H      0.311866500000     0.884495000000     0.938133500000     0          
C1s      C      0.079350000000     0.920650000000     0.579350000000     0          
C2s      C      0.250000000000     0.809550000000     0.690450000000     0          
O1       O      0.093915000000     0.628985000000     0.524520000000     0          
C1       C      0.102205000000     0.647795000000     0.534960000000     0          
C2       C      0.090560000000     0.659440000000     0.558110000000     0          
C3       C      0.101380000000     0.681075000000     0.568925000000     0          
H1       H      0.115505000000     0.688133500000     0.561866500000     0          
C1s      C      0.079350000000     0.920650000000     0.920650000000     0          
C2s      C      0.190450000000     0.750000000000     0.809550000000     0          
O1       O      0.371015000000     0.593915000000     0.524520000000     0          
C1       C      0.352205000000     0.602205000000     0.534960000000     0          
C2       C      0.340560000000     0.590560000000     0.558110000000     0          
C3       C      0.318925000000     0.601380000000     0.568925000000     0          
H1       H      0.311866500000     0.615505000000     0.561866500000     0          
C1s      C      0.079350000000     0.579350000000     0.920650000000     0          
C2s      C      0.250000000000     0.690450000000     0.809550000000     0          
O1       O      0.406085000000     0.871015000000     0.524520000000     0          
C1       C      0.397795000000     0.852205000000     0.534960000000     0          
C2       C      0.409440000000     0.840560000000     0.558110000000     0          
C3       C      0.398620000000     0.818925000000     0.568925000000     0          
H1       H      0.384495000000     0.811866500000     0.561866500000     0          
C1s      C      0.420650000000     0.579350000000     0.920650000000     0          
C2s      C      0.309550000000     0.750000000000     0.809550000000     0          
O1       O      0.128985000000     0.906085000000     0.524520000000     0          
C1       C      0.147795000000     0.897795000000     0.534960000000     0          
C2       C      0.159440000000     0.909440000000     0.558110000000     0          
C3       C      0.181075000000     0.898620000000     0.568925000000     0          
H1       H      0.188133500000     0.884495000000     0.561866500000     0          
C1s      C      0.420650000000     0.920650000000     0.920650000000     0          
C2s      C      0.250000000000     0.809550000000     0.809550000000     0          
Cu1      Cu     0.000000000000     0.608060000000     0.891940000000     0          
O1       O      0.475480000000     0.593915000000     0.871015000000     0          
O2       O      0.000000000000     0.578400000000     0.921600000000     0          
C1       C      0.465040000000     0.602205000000     0.852205000000     0          
C2       C      0.441890000000     0.590560000000     0.840560000000     0          
C3       C      0.431075000000     0.601380000000     0.818925000000     0          
H1       H      0.438133500000     0.615505000000     0.811866500000     0          
C2s      C      0.190450000000     0.690450000000     0.750000000000     0          
Cu1      Cu     0.391940000000     0.500000000000     0.891940000000     0          
O1       O      0.406085000000     0.975480000000     0.871015000000     0          
O2       O      0.421600000000     0.500000000000     0.921600000000     0          
C1       C      0.397795000000     0.965040000000     0.852205000000     0          
C2       C      0.409440000000     0.941890000000     0.840560000000     0          
C3       C      0.398620000000     0.931075000000     0.818925000000     0          
H1       H      0.384495000000     0.938133500000     0.811866500000     0          
C2s      C      0.309550000000     0.690450000000     0.750000000000     0          
Cu1      Cu     0.000000000000     0.891940000000     0.891940000000     0          
O1       O      0.024520000000     0.906085000000     0.871015000000     0          
O2       O      0.000000000000     0.921600000000     0.921600000000     0          
C1       C      0.034960000000     0.897795000000     0.852205000000     0          
C2       C      0.058110000000     0.909440000000     0.840560000000     0          
C3       C      0.068925000000     0.898620000000     0.818925000000     0          
H1       H      0.061866500000     0.884495000000     0.811866500000     0          
C2s      C      0.309550000000     0.809550000000     0.750000000000     0          
Cu1      Cu     0.108060000000     0.500000000000     0.891940000000     0          
O1       O      0.093915000000     0.524520000000     0.871015000000     0          
O2       O      0.078400000000     0.500000000000     0.921600000000     0          
C1       C      0.102205000000     0.534960000000     0.852205000000     0          
C2       C      0.090560000000     0.558110000000     0.840560000000     0          
C3       C      0.101380000000     0.568925000000     0.818925000000     0          
H1       H      0.115505000000     0.561866500000     0.811866500000     0          
C2s      C      0.190450000000     0.809550000000     0.750000000000     0          
Cu1      Cu     0.000000000000     0.891940000000     0.608060000000     0          
O1       O      0.475480000000     0.906085000000     0.628985000000     0          
O2       O      0.000000000000     0.921600000000     0.578400000000     0          
C1       C      0.465040000000     0.897795000000     0.647795000000     0          
C2       C      0.441890000000     0.909440000000     0.659440000000     0          
C3       C      0.431075000000     0.898620000000     0.681075000000     0          
H1       H      0.438133500000     0.884495000000     0.688133500000     0          
Cu1      Cu     0.108060000000     0.500000000000     0.608060000000     0          
O1       O      0.093915000000     0.975480000000     0.628985000000     0          
O2       O      0.078400000000     0.500000000000     0.578400000000     0          
C1       C      0.102205000000     0.965040000000     0.647795000000     0          
C2       C      0.090560000000     0.941890000000     0.659440000000     0          
C3       C      0.101380000000     0.931075000000     0.681075000000     0          
H1       H      0.115505000000     0.938133500000     0.688133500000     0          
Cu1      Cu     0.000000000000     0.608060000000     0.608060000000     0          
O1       O      0.024520000000     0.593915000000     0.628985000000     0          
O2       O      0.000000000000     0.578400000000     0.578400000000     0          
C1       C      0.034960000000     0.602205000000     0.647795000000     0          
C2       C      0.058110000000     0.590560000000     0.659440000000     0          
C3       C      0.068925000000     0.601380000000     0.681075000000     0          
H1       H      0.061866500000     0.615505000000     0.688133500000     0          
Cu1      Cu     0.391940000000     0.500000000000     0.608060000000     0          
O1       O      0.406085000000     0.524520000000     0.628985000000     0          
O2       O      0.421600000000     0.500000000000     0.578400000000     0          
C1       C      0.397795000000     0.534960000000     0.647795000000     0          
C2       C      0.409440000000     0.558110000000     0.659440000000     0          
C3       C      0.398620000000     0.568925000000     0.681075000000     0          
H1       H      0.384495000000     0.561866500000     0.688133500000     0          
O1       O      0.371015000000     0.975480000000     0.593915000000     0          
C1       C      0.352205000000     0.965040000000     0.602205000000     0          
C2       C      0.340560000000     0.941890000000     0.590560000000     0          
C3       C      0.318925000000     0.931075000000     0.601380000000     0          
H1       H      0.311866500000     0.938133500000     0.615505000000     0          
O1       O      0.371015000000     0.524520000000     0.906085000000     0          
C1       C      0.352205000000     0.534960000000     0.897795000000     0          
C2       C      0.340560000000     0.558110000000     0.909440000000     0          
C3       C      0.318925000000     0.568925000000     0.898620000000     0          
H1       H      0.311866500000     0.561866500000     0.884495000000     0          
O1       O      0.475480000000     0.871015000000     0.906085000000     0          
C1       C      0.465040000000     0.852205000000     0.897795000000     0          
C2       C      0.441890000000     0.840560000000     0.909440000000     0          
C3       C      0.431075000000     0.818925000000     0.898620000000     0          
H1       H      0.438133500000     0.811866500000     0.884495000000     0          
O1       O      0.128985000000     0.975480000000     0.906085000000     0          
C1       C      0.147795000000     0.965040000000     0.897795000000     0          
C2       C      0.159440000000     0.941890000000     0.909440000000     0          
C3       C      0.181075000000     0.931075000000     0.898620000000     0          
H1       H      0.188133500000     0.938133500000     0.884495000000     0          
O1       O      0.024520000000     0.628985000000     0.906085000000     0          
C1       C      0.034960000000     0.647795000000     0.897795000000     0          
C2       C      0.058110000000     0.659440000000     0.909440000000     0          
C3       C      0.068925000000     0.681075000000     0.898620000000     0          
H1       H      0.061866500000     0.688133500000     0.884495000000     0          
O1       O      0.128985000000     0.524520000000     0.593915000000     0          
C1       C      0.147795000000     0.534960000000     0.602205000000     0          
C2       C      0.159440000000     0.558110000000     0.590560000000     0          
C3       C      0.181075000000     0.568925000000     0.601380000000     0          
H1       H      0.188133500000     0.561866500000     0.615505000000     0          
O1       O      0.475480000000     0.628985000000     0.593915000000     0          
C1       C      0.465040000000     0.647795000000     0.602205000000     0          
C2       C      0.441890000000     0.659440000000     0.590560000000     0          
C3       C      0.431075000000     0.681075000000     0.601380000000     0          
H1       H      0.438133500000     0.688133500000     0.615505000000     0          
O1       O      0.024520000000     0.871015000000     0.593915000000     0          
C1       C      0.034960000000     0.852205000000     0.602205000000     0          
C2       C      0.058110000000     0.840560000000     0.590560000000     0          
C3       C      0.068925000000     0.818925000000     0.601380000000     0          
H1       H      0.061866500000     0.811866500000     0.615505000000     0          
O1       O      0.406085000000     0.628985000000     0.524520000000     0          
C1       C      0.397795000000     0.647795000000     0.534960000000     0          
C2       C      0.409440000000     0.659440000000     0.558110000000     0          
C3       C      0.398620000000     0.681075000000     0.568925000000     0          
H1       H      0.384495000000     0.688133500000     0.561866500000     0          
O1       O      0.371015000000     0.906085000000     0.524520000000     0          
C1       C      0.352205000000     0.897795000000     0.534960000000     0          
C2       C      0.340560000000     0.909440000000     0.558110000000     0          
C3       C      0.318925000000     0.898620000000     0.568925000000     0          
H1       H      0.311866500000     0.884495000000     0.561866500000     0          
O1       O      0.093915000000     0.871015000000     0.524520000000     0          
C1       C      0.102205000000     0.852205000000     0.534960000000     0          
C2       C      0.090560000000     0.840560000000     0.558110000000     0          
C3       C      0.101380000000     0.818925000000     0.568925000000     0          
H1       H      0.115505000000     0.811866500000     0.561866500000     0          
O1       O      0.128985000000     0.593915000000     0.524520000000     0          
C1       C      0.147795000000     0.602205000000     0.534960000000     0          
C2       C      0.159440000000     0.590560000000     0.558110000000     0          
C3       C      0.181075000000     0.601380000000     0.568925000000     0          
H1       H      0.188133500000     0.615505000000     0.561866500000     0          
O1       O      0.406085000000     0.871015000000     0.975480000000     0          
C1       C      0.397795000000     0.852205000000     0.965040000000     0          
C2       C      0.409440000000     0.840560000000     0.941890000000     0          
C3       C      0.398620000000     0.818925000000     0.931075000000     0          
H1       H      0.384495000000     0.811866500000     0.938133500000     0          
O1       O      0.128985000000     0.906085000000     0.975480000000     0          
C1       C      0.147795000000     0.897795000000     0.965040000000     0          
C2       C      0.159440000000     0.909440000000     0.941890000000     0          
C3       C      0.181075000000     0.898620000000     0.931075000000     0          
H1       H      0.188133500000     0.884495000000     0.938133500000     0          
O1       O      0.093915000000     0.628985000000     0.975480000000     0          
C1       C      0.102205000000     0.647795000000     0.965040000000     0          
C2       C      0.090560000000     0.659440000000     0.941890000000     0          
C3       C      0.101380000000     0.681075000000     0.931075000000     0          
H1       H      0.115505000000     0.688133500000     0.938133500000     0          
O1       O      0.371015000000     0.593915000000     0.975480000000     0          
C1       C      0.352205000000     0.602205000000     0.965040000000     0          
C2       C      0.340560000000     0.590560000000     0.941890000000     0          
C3       C      0.318925000000     0.601380000000     0.931075000000     0          
H1       H      0.311866500000     0.615505000000     0.938133500000     0          
O1       O      0.024520000000     0.906085000000     0.628985000000     0          
C1       C      0.034960000000     0.897795000000     0.647795000000     0          
C2       C      0.058110000000     0.909440000000     0.659440000000     0          
C3       C      0.068925000000     0.898620000000     0.681075000000     0          
H1       H      0.061866500000     0.884495000000     0.688133500000     0          
O1       O      0.093915000000     0.524520000000     0.628985000000     0          
C1       C      0.102205000000     0.534960000000     0.647795000000     0          
C2       C      0.090560000000     0.558110000000     0.659440000000     0          
C3       C      0.101380000000     0.568925000000     0.681075000000     0          
H1       H      0.115505000000     0.561866500000     0.688133500000     0          
O1       O      0.475480000000     0.593915000000     0.628985000000     0          
C1       C      0.465040000000     0.602205000000     0.647795000000     0          
C2       C      0.441890000000     0.590560000000     0.659440000000     0          
C3       C      0.431075000000     0.601380000000     0.681075000000     0          
H1       H      0.438133500000     0.615505000000     0.688133500000     0          
O1       O      0.406085000000     0.975480000000     0.628985000000     0          
C1       C      0.397795000000     0.965040000000     0.647795000000     0          
C2       C      0.409440000000     0.941890000000     0.659440000000     0          
C3       C      0.398620000000     0.931075000000     0.681075000000     0          
H1       H      0.384495000000     0.938133500000     0.688133500000     0          
O1       O      0.024520000000     0.593915000000     0.871015000000     0          
C1       C      0.034960000000     0.602205000000     0.852205000000     0          
C2       C      0.058110000000     0.590560000000     0.840560000000     0          
C3       C      0.068925000000     0.601380000000     0.818925000000     0          
H1       H      0.061866500000     0.615505000000     0.811866500000     0          
O1       O      0.406085000000     0.524520000000     0.871015000000     0          
C1       C      0.397795000000     0.534960000000     0.852205000000     0          
C2       C      0.409440000000     0.558110000000     0.840560000000     0          
C3       C      0.398620000000     0.568925000000     0.818925000000     0          
H1       H      0.384495000000     0.561866500000     0.811866500000     0          
O1       O      0.475480000000     0.906085000000     0.871015000000     0          
C1       C      0.465040000000     0.897795000000     0.852205000000     0          
C2       C      0.441890000000     0.909440000000     0.840560000000     0          
C3       C      0.431075000000     0.898620000000     0.818925000000     0          
H1       H      0.438133500000     0.884495000000     0.811866500000     0          
O1       O      0.093915000000     0.975480000000     0.871015000000     0          
C1       C      0.102205000000     0.965040000000     0.852205000000     0          
C2       C      0.090560000000     0.941890000000     0.840560000000     0          
C3       C      0.101380000000     0.931075000000     0.818925000000     0          
H1       H      0.115505000000     0.938133500000     0.811866500000     0          
O1       O      0.128985000000     0.524520000000     0.906085000000     0          
C1       C      0.147795000000     0.534960000000     0.897795000000     0          
C2       C      0.159440000000     0.558110000000     0.909440000000     0          
C3       C      0.181075000000     0.568925000000     0.898620000000     0          
H1       H      0.188133500000     0.561866500000     0.884495000000     0          
O1       O      0.128985000000     0.975480000000     0.593915000000     0          
C1       C      0.147795000000     0.965040000000     0.602205000000     0          
C2       C      0.159440000000     0.941890000000     0.590560000000     0          
C3       C      0.181075000000     0.931075000000     0.601380000000     0          
H1       H      0.188133500000     0.938133500000     0.615505000000     0          
O1       O      0.024520000000     0.628985000000     0.593915000000     0          
C1       C      0.034960000000     0.647795000000     0.602205000000     0          
C2       C      0.058110000000     0.659440000000     0.590560000000     0          
C3       C      0.068925000000     0.681075000000     0.601380000000     0          
H1       H      0.061866500000     0.688133500000     0.615505000000     0          
O1       O      0.371015000000     0.524520000000     0.593915000000     0          
C1       C      0.352205000000     0.534960000000     0.602205000000     0          
C2       C      0.340560000000     0.558110000000     0.590560000000     0          
C3       C      0.318925000000     0.568925000000     0.601380000000     0          
H1       H      0.311866500000     0.561866500000     0.615505000000     0          
O1       O      0.475480000000     0.871015000000     0.593915000000     0          
C1       C      0.465040000000     0.852205000000     0.602205000000     0          
C2       C      0.441890000000     0.840560000000     0.590560000000     0          
C3       C      0.431075000000     0.818925000000     0.601380000000     0          
H1       H      0.438133500000     0.811866500000     0.615505000000     0          
O1       O      0.371015000000     0.975480000000     0.906085000000     0          
C1       C      0.352205000000     0.965040000000     0.897795000000     0          
C2       C      0.340560000000     0.941890000000     0.909440000000     0          
C3       C      0.318925000000     0.931075000000     0.898620000000     0          
H1       H      0.311866500000     0.938133500000     0.884495000000     0          
O1       O      0.024520000000     0.871015000000     0.906085000000     0          
C1       C      0.034960000000     0.852205000000     0.897795000000     0          
C2       C      0.058110000000     0.840560000000     0.909440000000     0          
C3       C      0.068925000000     0.818925000000     0.898620000000     0          
H1       H      0.061866500000     0.811866500000     0.884495000000     0          
O1       O      0.475480000000     0.628985000000     0.906085000000     0          
C1       C      0.465040000000     0.647795000000     0.897795000000     0          
C2       C      0.441890000000     0.659440000000     0.909440000000     0          
C3       C      0.431075000000     0.681075000000     0.898620000000     0          
H1       H      0.438133500000     0.688133500000     0.884495000000     0          
Cu1      Cu     0.108060000000     0.641940000000     0.750000000000     0          
O1       O      0.093915000000     0.621015000000     0.725480000000     0          
O2       O      0.078400000000     0.671600000000     0.750000000000     0          
C1       C      0.102205000000     0.602205000000     0.715040000000     0          
C2       C      0.090560000000     0.590560000000     0.691890000000     0          
C1s      C      0.079350000000     0.829350000000     0.829350000000     0          
C2s      C      0.190450000000     0.500000000000     0.940450000000     0          
Cu1      Cu     0.108060000000     0.858060000000     0.750000000000     0          
O1       O      0.128985000000     0.843915000000     0.725480000000     0          
O2       O      0.078400000000     0.828400000000     0.750000000000     0          
C1       C      0.147795000000     0.852205000000     0.715040000000     0          
C2       C      0.159440000000     0.840560000000     0.691890000000     0          
C3       C      0.181075000000     0.851380000000     0.681075000000     0          
H1       H      0.188133500000     0.865505000000     0.688133500000     0          
C1s      C      0.420650000000     0.829350000000     0.829350000000     0          
C2s      C      0.250000000000     0.940450000000     0.940450000000     0          
Cu1      Cu     0.391940000000     0.858060000000     0.750000000000     0          
O1       O      0.406085000000     0.878985000000     0.725480000000     0          
O2       O      0.421600000000     0.828400000000     0.750000000000     0          
C1       C      0.397795000000     0.897795000000     0.715040000000     0          
C2       C      0.409440000000     0.909440000000     0.691890000000     0          
C1s      C      0.420650000000     0.670650000000     0.829350000000     0          
C2s      C      0.309550000000     0.500000000000     0.940450000000     0          
Cu1      Cu     0.391940000000     0.641940000000     0.750000000000     0          
O1       O      0.371015000000     0.656085000000     0.725480000000     0          
O2       O      0.421600000000     0.671600000000     0.750000000000     0          
C1       C      0.352205000000     0.647795000000     0.715040000000     0          
C2       C      0.340560000000     0.659440000000     0.691890000000     0          
C3       C      0.318925000000     0.648620000000     0.681075000000     0          
H1       H      0.311866500000     0.634495000000     0.688133500000     0          
C1s      C      0.079350000000     0.670650000000     0.829350000000     0          
C2s      C      0.250000000000     0.559550000000     0.940450000000     0          
O1       O      0.093915000000     0.878985000000     0.774520000000     0          
C1       C      0.102205000000     0.897795000000     0.784960000000     0          
C2       C      0.090560000000     0.909440000000     0.808110000000     0          
C1s      C      0.079350000000     0.670650000000     0.670650000000     0          
C2s      C      0.190450000000     0.500000000000     0.559550000000     0          
O1       O      0.371015000000     0.843915000000     0.774520000000     0          
C1       C      0.352205000000     0.852205000000     0.784960000000     0          
C2       C      0.340560000000     0.840560000000     0.808110000000     0          
C3       C      0.318925000000     0.851380000000     0.818925000000     0          
H1       H      0.311866500000     0.865505000000     0.811866500000     0          
C1s      C      0.079350000000     0.829350000000     0.670650000000     0          
C2s      C      0.250000000000     0.940450000000     0.559550000000     0          
O1       O      0.406085000000     0.621015000000     0.774520000000     0          
C1       C      0.397795000000     0.602205000000     0.784960000000     0          
C2       C      0.409440000000     0.590560000000     0.808110000000     0          
C1s      C      0.420650000000     0.829350000000     0.670650000000     0          
C2s      C      0.309550000000     0.500000000000     0.559550000000     0          
O1       O      0.128985000000     0.656085000000     0.774520000000     0          
C1       C      0.147795000000     0.647795000000     0.784960000000     0          
C2       C      0.159440000000     0.659440000000     0.808110000000     0          
C3       C      0.181075000000     0.648620000000     0.818925000000     0          
H1       H      0.188133500000     0.634495000000     0.811866500000     0          
C1s      C      0.420650000000     0.670650000000     0.670650000000     0          
C2s      C      0.250000000000     0.559550000000     0.559550000000     0          
Cu1      Cu     0.000000000000     0.858060000000     0.641940000000     0          
O1       O      0.475480000000     0.843915000000     0.621015000000     0          
O2       O      0.000000000000     0.828400000000     0.671600000000     0          
C3       C      0.431075000000     0.851380000000     0.568925000000     0          
H1       H      0.438133500000     0.865505000000     0.561866500000     0          
C2s      C      0.190450000000     0.940450000000     0.500000000000     0          
Cu1      Cu     0.391940000000     0.750000000000     0.641940000000     0          
O1       O      0.406085000000     0.725480000000     0.621015000000     0          
O2       O      0.421600000000     0.750000000000     0.671600000000     0          
C1       C      0.397795000000     0.715040000000     0.602205000000     0          
C2       C      0.409440000000     0.691890000000     0.590560000000     0          
C2s      C      0.309550000000     0.940450000000     0.500000000000     0          
Cu1      Cu     0.000000000000     0.641940000000     0.641940000000     0          
O1       O      0.024520000000     0.656085000000     0.621015000000     0          
O2       O      0.000000000000     0.671600000000     0.671600000000     0          
C3       C      0.068925000000     0.648620000000     0.568925000000     0          
H1       H      0.061866500000     0.634495000000     0.561866500000     0          
C2s      C      0.309550000000     0.559550000000     0.500000000000     0          
Cu1      Cu     0.108060000000     0.750000000000     0.641940000000     0          
O1       O      0.093915000000     0.774520000000     0.621015000000     0          
O2       O      0.078400000000     0.750000000000     0.671600000000     0          
C1       C      0.102205000000     0.784960000000     0.602205000000     0          
C2       C      0.090560000000     0.808110000000     0.590560000000     0          
C2s      C      0.190450000000     0.559550000000     0.500000000000     0          
Cu1      Cu     0.000000000000     0.641940000000     0.858060000000     0          
O1       O      0.475480000000     0.656085000000     0.878985000000     0          
O2       O      0.000000000000     0.671600000000     0.828400000000     0          
C3       C      0.431075000000     0.648620000000     0.931075000000     0          
H1       H      0.438133500000     0.634495000000     0.938133500000     0          
Cu1      Cu     0.108060000000     0.750000000000     0.858060000000     0          
O1       O      0.093915000000     0.725480000000     0.878985000000     0          
O2       O      0.078400000000     0.750000000000     0.828400000000     0          
C1       C      0.102205000000     0.715040000000     0.897795000000     0          
C2       C      0.090560000000     0.691890000000     0.909440000000     0          
Cu1      Cu     0.000000000000     0.858060000000     0.858060000000     0          
O1       O      0.024520000000     0.843915000000     0.878985000000     0          
O2       O      0.000000000000     0.828400000000     0.828400000000     0          
C3       C      0.068925000000     0.851380000000     0.931075000000     0          
H1       H      0.061866500000     0.865505000000     0.938133500000     0          
Cu1      Cu     0.391940000000     0.750000000000     0.858060000000     0          
O1       O      0.406085000000     0.774520000000     0.878985000000     0          
O2       O      0.421600000000     0.750000000000     0.828400000000     0          
C1       C      0.397795000000     0.784960000000     0.897795000000     0          
C2       C      0.409440000000     0.808110000000     0.909440000000     0          
O1       O      0.371015000000     0.725480000000     0.843915000000     0          
C1       C      0.352205000000     0.715040000000     0.852205000000     0          
C2       C      0.340560000000     0.691890000000     0.840560000000     0          
C3       C      0.318925000000     0.681075000000     0.851380000000     0          
H1       H      0.311866500000     0.688133500000     0.865505000000     0          
O1       O      0.371015000000     0.774520000000     0.656085000000     0          
C1       C      0.352205000000     0.784960000000     0.647795000000     0          
C2       C      0.340560000000     0.808110000000     0.659440000000     0          
C3       C      0.318925000000     0.818925000000     0.648620000000     0          
H1       H      0.311866500000     0.811866500000     0.634495000000     0          
O1       O      0.475480000000     0.621015000000     0.656085000000     0          
C3       C      0.431075000000     0.568925000000     0.648620000000     0          
H1       H      0.438133500000     0.561866500000     0.634495000000     0          
O1       O      0.128985000000     0.725480000000     0.656085000000     0          
C1       C      0.147795000000     0.715040000000     0.647795000000     0          
C2       C      0.159440000000     0.691890000000     0.659440000000     0          
C3       C      0.181075000000     0.681075000000     0.648620000000     0          
H1       H      0.188133500000     0.688133500000     0.634495000000     0          
O1       O      0.024520000000     0.878985000000     0.656085000000     0          
C3       C      0.068925000000     0.931075000000     0.648620000000     0          
H1       H      0.061866500000     0.938133500000     0.634495000000     0          
O1       O      0.128985000000     0.774520000000     0.843915000000     0          
C1       C      0.147795000000     0.784960000000     0.852205000000     0          
C2       C      0.159440000000     0.808110000000     0.840560000000     0          
C3       C      0.181075000000     0.818925000000     0.851380000000     0          
H1       H      0.188133500000     0.811866500000     0.865505000000     0          
O1       O      0.475480000000     0.878985000000     0.843915000000     0          
C3       C      0.431075000000     0.931075000000     0.851380000000     0          
H1       H      0.438133500000     0.938133500000     0.865505000000     0          
O1       O      0.024520000000     0.621015000000     0.843915000000     0          
C3       C      0.068925000000     0.568925000000     0.851380000000     0          
H1       H      0.061866500000     0.561866500000     0.865505000000     0          
O1       O      0.406085000000     0.878985000000     0.774520000000     0          
C1       C      0.397795000000     0.897795000000     0.784960000000     0          
C2       C      0.409440000000     0.909440000000     0.808110000000     0          
O1       O      0.371015000000     0.656085000000     0.774520000000     0          
C1       C      0.352205000000     0.647795000000     0.784960000000     0          
C2       C      0.340560000000     0.659440000000     0.808110000000     0          
C3       C      0.318925000000     0.648620000000     0.818925000000     0          
H1       H      0.311866500000     0.634495000000     0.811866500000     0          
O1       O      0.093915000000     0.621015000000     0.774520000000     0          
C1       C      0.102205000000     0.602205000000     0.784960000000     0          
C2       C      0.090560000000     0.590560000000     0.808110000000     0          
O1       O      0.128985000000     0.843915000000     0.774520000000     0          
C1       C      0.147795000000     0.852205000000     0.784960000000     0          
C2       C      0.159440000000     0.840560000000     0.808110000000     0          
C3       C      0.181075000000     0.851380000000     0.818925000000     0          
H1       H      0.188133500000     0.865505000000     0.811866500000     0          
O1       O      0.406085000000     0.621015000000     0.725480000000     0          
C1       C      0.397795000000     0.602205000000     0.715040000000     0          
C2       C      0.409440000000     0.590560000000     0.691890000000     0          
O1       O      0.128985000000     0.656085000000     0.725480000000     0          
C1       C      0.147795000000     0.647795000000     0.715040000000     0          
C2       C      0.159440000000     0.659440000000     0.691890000000     0          
C3       C      0.181075000000     0.648620000000     0.681075000000     0          
H1       H      0.188133500000     0.634495000000     0.688133500000     0          
O1       O      0.093915000000     0.878985000000     0.725480000000     0          
C1       C      0.102205000000     0.897795000000     0.715040000000     0          
C2       C      0.090560000000     0.909440000000     0.691890000000     0          
O1       O      0.371015000000     0.843915000000     0.725480000000     0          
C1       C      0.352205000000     0.852205000000     0.715040000000     0          
C2       C      0.340560000000     0.840560000000     0.691890000000     0          
C3       C      0.318925000000     0.851380000000     0.681075000000     0          
H1       H      0.311866500000     0.865505000000     0.688133500000     0          
O1       O      0.024520000000     0.656085000000     0.878985000000     0          
C3       C      0.068925000000     0.648620000000     0.931075000000     0          
H1       H      0.061866500000     0.634495000000     0.938133500000     0          
O1       O      0.093915000000     0.774520000000     0.878985000000     0          
C1       C      0.102205000000     0.784960000000     0.897795000000     0          
C2       C      0.090560000000     0.808110000000     0.909440000000     0          
O1       O      0.475480000000     0.843915000000     0.878985000000     0          
C3       C      0.431075000000     0.851380000000     0.931075000000     0          
H1       H      0.438133500000     0.865505000000     0.938133500000     0          
O1       O      0.406085000000     0.725480000000     0.878985000000     0          
C1       C      0.397795000000     0.715040000000     0.897795000000     0          
C2       C      0.409440000000     0.691890000000     0.909440000000     0          
O1       O      0.024520000000     0.843915000000     0.621015000000     0          
C3       C      0.068925000000     0.851380000000     0.568925000000     0          
H1       H      0.061866500000     0.865505000000     0.561866500000     0          
O1       O      0.406085000000     0.774520000000     0.621015000000     0          
C1       C      0.397795000000     0.784960000000     0.602205000000     0          
C2       C      0.409440000000     0.808110000000     0.590560000000     0          
O1       O      0.475480000000     0.656085000000     0.621015000000     0          
C3       C      0.431075000000     0.648620000000     0.568925000000     0          
H1       H      0.438133500000     0.634495000000     0.561866500000     0          
O1       O      0.093915000000     0.725480000000     0.621015000000     0          
C1       C      0.102205000000     0.715040000000     0.602205000000     0          
C2       C      0.090560000000     0.691890000000     0.590560000000     0          
O1       O      0.128985000000     0.774520000000     0.656085000000     0          
C1       C      0.147795000000     0.784960000000     0.647795000000     0          
C2       C      0.159440000000     0.808110000000     0.659440000000     0          
C3       C      0.181075000000     0.818925000000     0.648620000000     0          
H1       H      0.188133500000     0.811866500000     0.634495000000     0          
O1       O      0.128985000000     0.725480000000     0.843915000000     0          
C1       C      0.147795000000     0.715040000000     0.852205000000     0          
C2       C      0.159440000000     0.691890000000     0.840560000000     0          
C3       C      0.181075000000     0.681075000000     0.851380000000     0          
H1       H      0.188133500000     0.688133500000     0.865505000000     0          
O1       O      0.024520000000     0.878985000000     0.843915000000     0          
C3       C      0.068925000000     0.931075000000     0.851380000000     0          
H1       H      0.061866500000     0.938133500000     0.865505000000     0          
O1       O      0.371015000000     0.774520000000     0.843915000000     0          
C1       C      0.352205000000     0.784960000000     0.852205000000     0          
C2       C      0.340560000000     0.808110000000     0.840560000000     0          
C3       C      0.318925000000     0.818925000000     0.851380000000     0          
H1       H      0.311866500000     0.811866500000     0.865505000000     0          
O1       O      0.475480000000     0.621015000000     0.843915000000     0          
C3       C      0.431075000000     0.568925000000     0.851380000000     0          
H1       H      0.438133500000     0.561866500000     0.865505000000     0          
O1       O      0.371015000000     0.725480000000     0.656085000000     0          
C1       C      0.352205000000     0.715040000000     0.647795000000     0          
C2       C      0.340560000000     0.691890000000     0.659440000000     0          
C3       C      0.318925000000     0.681075000000     0.648620000000     0          
H1       H      0.311866500000     0.688133500000     0.634495000000     0          
O1       O      0.024520000000     0.621015000000     0.656085000000     0          
C3       C      0.068925000000     0.568925000000     0.648620000000     0          
H1       H      0.061866500000     0.561866500000     0.634495000000     0          
O1       O      0.475480000000     0.878985000000     0.656085000000     0          
C3       C      0.431075000000     0.931075000000     0.648620000000     0          
H1       H      0.438133500000     0.938133500000     0.634495000000     0          
Cu1      Cu     0.358060000000     0.891940000000     0.750000000000     0          
O1       O      0.343915000000     0.871015000000     0.725480000000     0          
O2       O      0.328400000000     0.921600000000     0.750000000000     0          
C3       C      0.351380000000     0.818925000000     0.681075000000     0          
H1       H      0.365505000000     0.811866500000     0.688133500000     0          
C1s      C      0.329350000000     0.579350000000     0.829350000000     0          
C2s      C      0.440450000000     0.750000000000     0.940450000000     0          
Cu1      Cu     0.358060000000     0.608060000000     0.750000000000     0          
O1       O      0.378985000000     0.593915000000     0.725480000000     0          
O2       O      0.328400000000     0.578400000000     0.750000000000     0          
C1s      C      0.170650000000     0.579350000000     0.829350000000     0          
C2s      C      0.000000000000     0.690450000000     0.940450000000     0          
Cu1      Cu     0.141940000000     0.608060000000     0.750000000000     0          
O1       O      0.156085000000     0.628985000000     0.725480000000     0          
O2       O      0.171600000000     0.578400000000     0.750000000000     0          
C3       C      0.148620000000     0.681075000000     0.681075000000     0          
H1       H      0.134495000000     0.688133500000     0.688133500000     0          
C1s      C      0.170650000000     0.920650000000     0.829350000000     0          
C2s      C      0.059550000000     0.750000000000     0.940450000000     0          
Cu1      Cu     0.141940000000     0.891940000000     0.750000000000     0          
O1       O      0.121015000000     0.906085000000     0.725480000000     0          
O2       O      0.171600000000     0.921600000000     0.750000000000     0          
C1s      C      0.329350000000     0.920650000000     0.829350000000     0          
C2s      C      0.000000000000     0.809550000000     0.940450000000     0          
O1       O      0.343915000000     0.628985000000     0.774520000000     0          
C3       C      0.351380000000     0.681075000000     0.818925000000     0          
H1       H      0.365505000000     0.688133500000     0.811866500000     0          
C1s      C      0.329350000000     0.920650000000     0.670650000000     0          
C2s      C      0.440450000000     0.750000000000     0.559550000000     0          
O1       O      0.121015000000     0.593915000000     0.774520000000     0          
C1s      C      0.329350000000     0.579350000000     0.670650000000     0          
C2s      C      0.000000000000     0.690450000000     0.559550000000     0          
O1       O      0.156085000000     0.871015000000     0.774520000000     0          
C3       C      0.148620000000     0.818925000000     0.818925000000     0          
H1       H      0.134495000000     0.811866500000     0.811866500000     0          
C1s      C      0.170650000000     0.579350000000     0.670650000000     0          
C2s      C      0.059550000000     0.750000000000     0.559550000000     0          
O1       O      0.378985000000     0.906085000000     0.774520000000     0          
C1s      C      0.170650000000     0.920650000000     0.670650000000     0          
C2s      C      0.000000000000     0.809550000000     0.559550000000     0          
Cu1      Cu     0.250000000000     0.608060000000     0.641940000000     0          
O1       O      0.225480000000     0.593915000000     0.621015000000     0          
O2       O      0.250000000000     0.578400000000     0.671600000000     0          
C1       C      0.215040000000     0.602205000000     0.602205000000     0          
C2       C      0.191890000000     0.590560000000     0.590560000000     0          
C2s      C      0.440450000000     0.690450000000     0.500000000000     0          
Cu1      Cu     0.141940000000     0.500000000000     0.641940000000     0          
O1       O      0.156085000000     0.975480000000     0.621015000000     0          
O2       O      0.171600000000     0.500000000000     0.671600000000     0          
C3       C      0.148620000000     0.931075000000     0.568925000000     0          
H1       H      0.134495000000     0.938133500000     0.561866500000     0          
C2s      C      0.059550000000     0.690450000000     0.500000000000     0          
Cu1      Cu     0.250000000000     0.891940000000     0.641940000000     0          
O1       O      0.274520000000     0.906085000000     0.621015000000     0          
O2       O      0.250000000000     0.921600000000     0.671600000000     0          
C1       C      0.284960000000     0.897795000000     0.602205000000     0          
C2       C      0.308110000000     0.909440000000     0.590560000000     0          
C2s      C      0.059550000000     0.809550000000     0.500000000000     0          
Cu1      Cu     0.358060000000     0.500000000000     0.641940000000     0          
O1       O      0.343915000000     0.524520000000     0.621015000000     0          
O2       O      0.328400000000     0.500000000000     0.671600000000     0          
C3       C      0.351380000000     0.568925000000     0.568925000000     0          
H1       H      0.365505000000     0.561866500000     0.561866500000     0          
C2s      C      0.440450000000     0.809550000000     0.500000000000     0          
Cu1      Cu     0.250000000000     0.891940000000     0.858060000000     0          
O1       O      0.225480000000     0.906085000000     0.878985000000     0          
O2       O      0.250000000000     0.921600000000     0.828400000000     0          
C1       C      0.215040000000     0.897795000000     0.897795000000     0          
C2       C      0.191890000000     0.909440000000     0.909440000000     0          
Cu1      Cu     0.358060000000     0.500000000000     0.858060000000     0          
O1       O      0.343915000000     0.975480000000     0.878985000000     0          
O2       O      0.328400000000     0.500000000000     0.828400000000     0          
C3       C      0.351380000000     0.931075000000     0.931075000000     0          
H1       H      0.365505000000     0.938133500000     0.938133500000     0          
Cu1      Cu     0.250000000000     0.608060000000     0.858060000000     0          
O1       O      0.274520000000     0.593915000000     0.878985000000     0          
O2       O      0.250000000000     0.578400000000     0.828400000000     0          
C1       C      0.284960000000     0.602205000000     0.897795000000     0          
C2       C      0.308110000000     0.590560000000     0.909440000000     0          
Cu1      Cu     0.141940000000     0.500000000000     0.858060000000     0          
O1       O      0.156085000000     0.524520000000     0.878985000000     0          
O2       O      0.171600000000     0.500000000000     0.828400000000     0          
C3       C      0.148620000000     0.568925000000     0.931075000000     0          
H1       H      0.134495000000     0.561866500000     0.938133500000     0          
O1       O      0.121015000000     0.975480000000     0.843915000000     0          
O1       O      0.121015000000     0.524520000000     0.656085000000     0          
O1       O      0.225480000000     0.871015000000     0.656085000000     0          
C1       C      0.215040000000     0.852205000000     0.647795000000     0          
C2       C      0.191890000000     0.840560000000     0.659440000000     0          
O1       O      0.378985000000     0.975480000000     0.656085000000     0          
O1       O      0.274520000000     0.628985000000     0.656085000000     0          
C1       C      0.284960000000     0.647795000000     0.647795000000     0          
C2       C      0.308110000000     0.659440000000     0.659440000000     0          
O1       O      0.378985000000     0.524520000000     0.843915000000     0          
O1       O      0.225480000000     0.628985000000     0.843915000000     0          
C1       C      0.215040000000     0.647795000000     0.852205000000     0          
C2       C      0.191890000000     0.659440000000     0.840560000000     0          
O1       O      0.274520000000     0.871015000000     0.843915000000     0          
C1       C      0.284960000000     0.852205000000     0.852205000000     0          
C2       C      0.308110000000     0.840560000000     0.840560000000     0          
O1       O      0.156085000000     0.628985000000     0.774520000000     0          
C3       C      0.148620000000     0.681075000000     0.818925000000     0          
H1       H      0.134495000000     0.688133500000     0.811866500000     0          
O1       O      0.121015000000     0.906085000000     0.774520000000     0          
O1       O      0.343915000000     0.871015000000     0.774520000000     0          
C3       C      0.351380000000     0.818925000000     0.818925000000     0          
H1       H      0.365505000000     0.811866500000     0.811866500000     0          
O1       O      0.378985000000     0.593915000000     0.774520000000     0          
O1       O      0.156085000000     0.871015000000     0.725480000000     0          
C3       C      0.148620000000     0.818925000000     0.681075000000     0          
H1       H      0.134495000000     0.811866500000     0.688133500000     0          
O1       O      0.378985000000     0.906085000000     0.725480000000     0          
O1       O      0.343915000000     0.628985000000     0.725480000000     0          
C3       C      0.351380000000     0.681075000000     0.681075000000     0          
H1       H      0.365505000000     0.688133500000     0.688133500000     0          
O1       O      0.121015000000     0.593915000000     0.725480000000     0          
O1       O      0.274520000000     0.906085000000     0.878985000000     0          
C1       C      0.284960000000     0.897795000000     0.897795000000     0          
C2       C      0.308110000000     0.909440000000     0.909440000000     0          
O1       O      0.343915000000     0.524520000000     0.878985000000     0          
C3       C      0.351380000000     0.568925000000     0.931075000000     0          
H1       H      0.365505000000     0.561866500000     0.938133500000     0          
O1       O      0.225480000000     0.593915000000     0.878985000000     0          
C1       C      0.215040000000     0.602205000000     0.897795000000     0          
C2       C      0.191890000000     0.590560000000     0.909440000000     0          
O1       O      0.156085000000     0.975480000000     0.878985000000     0          
C3       C      0.148620000000     0.931075000000     0.931075000000     0          
H1       H      0.134495000000     0.938133500000     0.938133500000     0          
O1       O      0.274520000000     0.593915000000     0.621015000000     0          
C1       C      0.284960000000     0.602205000000     0.602205000000     0          
C2       C      0.308110000000     0.590560000000     0.590560000000     0          
O1       O      0.156085000000     0.524520000000     0.621015000000     0          
C3       C      0.148620000000     0.568925000000     0.568925000000     0          
H1       H      0.134495000000     0.561866500000     0.561866500000     0          
O1       O      0.225480000000     0.906085000000     0.621015000000     0          
C1       C      0.215040000000     0.897795000000     0.602205000000     0          
C2       C      0.191890000000     0.909440000000     0.590560000000     0          
O1       O      0.343915000000     0.975480000000     0.621015000000     0          
C3       C      0.351380000000     0.931075000000     0.568925000000     0          
H1       H      0.365505000000     0.938133500000     0.561866500000     0          
O1       O      0.378985000000     0.524520000000     0.656085000000     0          
O1       O      0.378985000000     0.975480000000     0.843915000000     0          
O1       O      0.274520000000     0.628985000000     0.843915000000     0          
C1       C      0.284960000000     0.647795000000     0.852205000000     0          
C2       C      0.308110000000     0.659440000000     0.840560000000     0          
O1       O      0.121015000000     0.524520000000     0.843915000000     0          
O1       O      0.225480000000     0.871015000000     0.843915000000     0          
C1       C      0.215040000000     0.852205000000     0.852205000000     0          
C2       C      0.191890000000     0.840560000000     0.840560000000     0          
O1       O      0.121015000000     0.975480000000     0.656085000000     0          
O1       O      0.274520000000     0.871015000000     0.656085000000     0          
C1       C      0.284960000000     0.852205000000     0.647795000000     0          
C2       C      0.308110000000     0.840560000000     0.659440000000     0          
O1       O      0.225480000000     0.628985000000     0.656085000000     0          
C1       C      0.215040000000     0.647795000000     0.647795000000     0          
C2       C      0.191890000000     0.659440000000     0.659440000000     0          
Cu1      Cu     0.358060000000     0.641940000000     0.500000000000     0          
O1       O      0.343915000000     0.621015000000     0.975480000000     0          
O2       O      0.328400000000     0.671600000000     0.500000000000     0          
C1s      C      0.329350000000     0.829350000000     0.579350000000     0          
C2s      C      0.440450000000     0.500000000000     0.690450000000     0          
Cu1      Cu     0.358060000000     0.858060000000     0.500000000000     0          
O1       O      0.378985000000     0.843915000000     0.975480000000     0          
O2       O      0.328400000000     0.828400000000     0.500000000000     0          
C1s      C      0.170650000000     0.829350000000     0.579350000000     0          
C2s      C      0.000000000000     0.940450000000     0.690450000000     0          
Cu1      Cu     0.141940000000     0.858060000000     0.500000000000     0          
O1       O      0.156085000000     0.878985000000     0.975480000000     0          
O2       O      0.171600000000     0.828400000000     0.500000000000     0          
C1s      C      0.170650000000     0.670650000000     0.579350000000     0          
C2s      C      0.059550000000     0.500000000000     0.690450000000     0          
Cu1      Cu     0.141940000000     0.641940000000     0.500000000000     0          
O1       O      0.121015000000     0.656085000000     0.975480000000     0          
O2       O      0.171600000000     0.671600000000     0.500000000000     0          
C1s      C      0.329350000000     0.670650000000     0.579350000000     0          
C2s      C      0.000000000000     0.559550000000     0.690450000000     0          
O1       O      0.343915000000     0.878985000000     0.524520000000     0          
C1s      C      0.329350000000     0.670650000000     0.920650000000     0          
C2s      C      0.440450000000     0.500000000000     0.809550000000     0          
O1       O      0.121015000000     0.843915000000     0.524520000000     0          
C1s      C      0.329350000000     0.829350000000     0.920650000000     0          
C2s      C      0.000000000000     0.940450000000     0.809550000000     0          
O1       O      0.156085000000     0.621015000000     0.524520000000     0          
C1s      C      0.170650000000     0.829350000000     0.920650000000     0          
C2s      C      0.059550000000     0.500000000000     0.809550000000     0          
O1       O      0.378985000000     0.656085000000     0.524520000000     0          
C1s      C      0.170650000000     0.670650000000     0.920650000000     0          
C2s      C      0.000000000000     0.559550000000     0.809550000000     0          
Cu1      Cu     0.250000000000     0.858060000000     0.891940000000     0          
O1       O      0.225480000000     0.843915000000     0.871015000000     0          
O2       O      0.250000000000     0.828400000000     0.921600000000     0          
C2s      C      0.440450000000     0.940450000000     0.750000000000     0          
Cu1      Cu     0.141940000000     0.750000000000     0.891940000000     0          
O1       O      0.156085000000     0.725480000000     0.871015000000     0          
O2       O      0.171600000000     0.750000000000     0.921600000000     0          
C2s      C      0.059550000000     0.940450000000     0.750000000000     0          
Cu1      Cu     0.250000000000     0.641940000000     0.891940000000     0          
O1       O      0.274520000000     0.656085000000     0.871015000000     0          
O2       O      0.250000000000     0.671600000000     0.921600000000     0          
C2s      C      0.059550000000     0.559550000000     0.750000000000     0          
Cu1      Cu     0.358060000000     0.750000000000     0.891940000000     0          
O1       O      0.343915000000     0.774520000000     0.871015000000     0          
O2       O      0.328400000000     0.750000000000     0.921600000000     0          
C2s      C      0.440450000000     0.559550000000     0.750000000000     0          
Cu1      Cu     0.250000000000     0.641940000000     0.608060000000     0          
O1       O      0.225480000000     0.656085000000     0.628985000000     0          
O2       O      0.250000000000     0.671600000000     0.578400000000     0          
Cu1      Cu     0.358060000000     0.750000000000     0.608060000000     0          
O1       O      0.343915000000     0.725480000000     0.628985000000     0          
O2       O      0.328400000000     0.750000000000     0.578400000000     0          
Cu1      Cu     0.250000000000     0.858060000000     0.608060000000     0          
O1       O      0.274520000000     0.843915000000     0.628985000000     0          
O2       O      0.250000000000     0.828400000000     0.578400000000     0          
Cu1      Cu     0.141940000000     0.750000000000     0.608060000000     0          
O1       O      0.156085000000     0.774520000000     0.628985000000     0          
O2       O      0.171600000000     0.750000000000     0.578400000000     0          
O1       O      0.121015000000     0.725480000000     0.593915000000     0          
O1       O      0.121015000000     0.774520000000     0.906085000000     0          
O1       O      0.225480000000     0.621015000000     0.906085000000     0          
O1       O      0.378985000000     0.725480000000     0.906085000000     0          
O1       O      0.274520000000     0.878985000000     0.906085000000     0          
O1       O      0.378985000000     0.774520000000     0.593915000000     0          
O1       O      0.225480000000     0.878985000000     0.593915000000     0          
O1       O      0.274520000000     0.621015000000     0.593915000000     0          
O1       O      0.156085000000     0.878985000000     0.524520000000     0          
O1       O      0.121015000000     0.656085000000     0.524520000000     0          
O1       O      0.343915000000     0.621015000000     0.524520000000     0          
O1       O      0.378985000000     0.843915000000     0.524520000000     0          
O1       O      0.156085000000     0.621015000000     0.975480000000     0          
O1       O      0.378985000000     0.656085000000     0.975480000000     0          
O1       O      0.343915000000     0.878985000000     0.975480000000     0          
O1       O      0.121015000000     0.843915000000     0.975480000000     0          
O1       O      0.274520000000     0.656085000000     0.628985000000     0          
O1       O      0.343915000000     0.774520000000     0.628985000000     0          
O1       O      0.225480000000     0.843915000000     0.628985000000     0          
O1       O      0.156085000000     0.725480000000     0.628985000000     0          
O1       O      0.274520000000     0.843915000000     0.871015000000     0          
O1       O      0.156085000000     0.774520000000     0.871015000000     0          
O1       O      0.225480000000     0.656085000000     0.871015000000     0          
O1       O      0.343915000000     0.725480000000     0.871015000000     0          
O1       O      0.378985000000     0.774520000000     0.906085000000     0          
O1       O      0.378985000000     0.725480000000     0.593915000000     0          
O1       O      0.274520000000     0.878985000000     0.593915000000     0          
O1       O      0.121015000000     0.774520000000     0.593915000000     0          
O1       O      0.225480000000     0.621015000000     0.593915000000     0          
O1       O      0.121015000000     0.725480000000     0.906085000000     0          
O1       O      0.274520000000     0.621015000000     0.906085000000     0          
O1       O      0.225480000000     0.878985000000     0.906085000000     0          
Cu1      Cu     0.608060000000     0.391940000000     0.000000000000     0          
O1       O      0.593915000000     0.371015000000     0.475480000000     0          
O2       O      0.578400000000     0.421600000000     0.000000000000     0          
C1       C      0.602205000000     0.352205000000     0.465040000000     0          
C2       C      0.590560000000     0.340560000000     0.441890000000     0          
C3       C      0.601380000000     0.318925000000     0.431075000000     0          
H1       H      0.615505000000     0.311866500000     0.438133500000     0          
C1s      C      0.579350000000     0.079350000000     0.079350000000     0          
C2s      C      0.690450000000     0.250000000000     0.190450000000     0          
Cu1      Cu     0.608060000000     0.108060000000     0.000000000000     0          
O1       O      0.628985000000     0.093915000000     0.475480000000     0          
O2       O      0.578400000000     0.078400000000     0.000000000000     0          
C1       C      0.647795000000     0.102205000000     0.465040000000     0          
C2       C      0.659440000000     0.090560000000     0.441890000000     0          
C3       C      0.681075000000     0.101380000000     0.431075000000     0          
H1       H      0.688133500000     0.115505000000     0.438133500000     0          
C1s      C      0.920650000000     0.079350000000     0.079350000000     0          
C2s      C      0.750000000000     0.190450000000     0.190450000000     0          
Cu1      Cu     0.891940000000     0.108060000000     0.000000000000     0          
O1       O      0.906085000000     0.128985000000     0.475480000000     0          
O2       O      0.921600000000     0.078400000000     0.000000000000     0          
C1       C      0.897795000000     0.147795000000     0.465040000000     0          
C2       C      0.909440000000     0.159440000000     0.441890000000     0          
C3       C      0.898620000000     0.181075000000     0.431075000000     0          
H1       H      0.884495000000     0.188133500000     0.438133500000     0          
C1s      C      0.920650000000     0.420650000000     0.079350000000     0          
C2s      C      0.809550000000     0.250000000000     0.190450000000     0          
Cu1      Cu     0.891940000000     0.391940000000     0.000000000000     0          
O1       O      0.871015000000     0.406085000000     0.475480000000     0          
O2       O      0.921600000000     0.421600000000     0.000000000000     0          
C1       C      0.852205000000     0.397795000000     0.465040000000     0          
C2       C      0.840560000000     0.409440000000     0.441890000000     0          
C3       C      0.818925000000     0.398620000000     0.431075000000     0          
H1       H      0.811866500000     0.384495000000     0.438133500000     0          
C1s      C      0.579350000000     0.420650000000     0.079350000000     0          
C2s      C      0.750000000000     0.309550000000     0.190450000000     0          
O1       O      0.593915000000     0.128985000000     0.024520000000     0          
C1       C      0.602205000000     0.147795000000     0.034960000000     0          
C2       C      0.590560000000     0.159440000000     0.058110000000     0          
C3       C      0.601380000000     0.181075000000     0.068925000000     0          
H1       H      0.615505000000     0.188133500000     0.061866500000     0          
C1s      C      0.579350000000     0.420650000000     0.420650000000     0          
C2s      C      0.690450000000     0.250000000000     0.309550000000     0          
O1       O      0.871015000000     0.093915000000     0.024520000000     0          
C1       C      0.852205000000     0.102205000000     0.034960000000     0          
C2       C      0.840560000000     0.090560000000     0.058110000000     0          
C3       C      0.818925000000     0.101380000000     0.068925000000     0          
H1       H      0.811866500000     0.115505000000     0.061866500000     0          
C1s      C      0.579350000000     0.079350000000     0.420650000000     0          
C2s      C      0.750000000000     0.190450000000     0.309550000000     0          
O1       O      0.906085000000     0.371015000000     0.024520000000     0          
C1       C      0.897795000000     0.352205000000     0.034960000000     0          
C2       C      0.909440000000     0.340560000000     0.058110000000     0          
C3       C      0.898620000000     0.318925000000     0.068925000000     0          
H1       H      0.884495000000     0.311866500000     0.061866500000     0          
C1s      C      0.920650000000     0.079350000000     0.420650000000     0          
C2s      C      0.809550000000     0.250000000000     0.309550000000     0          
O1       O      0.628985000000     0.406085000000     0.024520000000     0          
C1       C      0.647795000000     0.397795000000     0.034960000000     0          
C2       C      0.659440000000     0.409440000000     0.058110000000     0          
C3       C      0.681075000000     0.398620000000     0.068925000000     0          
H1       H      0.688133500000     0.384495000000     0.061866500000     0          
C1s      C      0.920650000000     0.420650000000     0.420650000000     0          
C2s      C      0.750000000000     0.309550000000     0.309550000000     0          
Cu1      Cu     0.500000000000     0.108060000000     0.391940000000     0          
O1       O      0.975480000000     0.093915000000     0.371015000000     0          
O2       O      0.500000000000     0.078400000000     0.421600000000     0          
C1       C      0.965040000000     0.102205000000     0.352205000000     0          
C2       C      0.941890000000     0.090560000000     0.340560000000     0          
C3       C      0.931075000000     0.101380000000     0.318925000000     0          
H1       H      0.938133500000     0.115505000000     0.311866500000     0          
C2s      C      0.690450000000     0.190450000000     0.250000000000     0          
Cu1      Cu     0.891940000000     0.000000000000     0.391940000000     0          
O1       O      0.906085000000     0.475480000000     0.371015000000     0          
O2       O      0.921600000000     0.000000000000     0.421600000000     0          
C1       C      0.897795000000     0.465040000000     0.352205000000     0          
C2       C      0.909440000000     0.441890000000     0.340560000000     0          
C3       C      0.898620000000     0.431075000000     0.318925000000     0          
H1       H      0.884495000000     0.438133500000     0.311866500000     0          
C2s      C      0.809550000000     0.190450000000     0.250000000000     0          
Cu1      Cu     0.500000000000     0.391940000000     0.391940000000     0          
O1       O      0.524520000000     0.406085000000     0.371015000000     0          
O2       O      0.500000000000     0.421600000000     0.421600000000     0          
C1       C      0.534960000000     0.397795000000     0.352205000000     0          
C2       C      0.558110000000     0.409440000000     0.340560000000     0          
C3       C      0.568925000000     0.398620000000     0.318925000000     0          
H1       H      0.561866500000     0.384495000000     0.311866500000     0          
C2s      C      0.809550000000     0.309550000000     0.250000000000     0          
Cu1      Cu     0.608060000000     0.000000000000     0.391940000000     0          
O1       O      0.593915000000     0.024520000000     0.371015000000     0          
O2       O      0.578400000000     0.000000000000     0.421600000000     0          
C1       C      0.602205000000     0.034960000000     0.352205000000     0          
C2       C      0.590560000000     0.058110000000     0.340560000000     0          
C3       C      0.601380000000     0.068925000000     0.318925000000     0          
H1       H      0.615505000000     0.061866500000     0.311866500000     0          
C2s      C      0.690450000000     0.309550000000     0.250000000000     0          
Cu1      Cu     0.500000000000     0.391940000000     0.108060000000     0          
O1       O      0.975480000000     0.406085000000     0.128985000000     0          
O2       O      0.500000000000     0.421600000000     0.078400000000     0          
C1       C      0.965040000000     0.397795000000     0.147795000000     0          
C2       C      0.941890000000     0.409440000000     0.159440000000     0          
C3       C      0.931075000000     0.398620000000     0.181075000000     0          
H1       H      0.938133500000     0.384495000000     0.188133500000     0          
Cu1      Cu     0.608060000000     0.000000000000     0.108060000000     0          
O1       O      0.593915000000     0.475480000000     0.128985000000     0          
O2       O      0.578400000000     0.000000000000     0.078400000000     0          
C1       C      0.602205000000     0.465040000000     0.147795000000     0          
C2       C      0.590560000000     0.441890000000     0.159440000000     0          
C3       C      0.601380000000     0.431075000000     0.181075000000     0          
H1       H      0.615505000000     0.438133500000     0.188133500000     0          
Cu1      Cu     0.500000000000     0.108060000000     0.108060000000     0          
O1       O      0.524520000000     0.093915000000     0.128985000000     0          
O2       O      0.500000000000     0.078400000000     0.078400000000     0          
C1       C      0.534960000000     0.102205000000     0.147795000000     0          
C2       C      0.558110000000     0.090560000000     0.159440000000     0          
C3       C      0.568925000000     0.101380000000     0.181075000000     0          
H1       H      0.561866500000     0.115505000000     0.188133500000     0          
Cu1      Cu     0.891940000000     0.000000000000     0.108060000000     0          
O1       O      0.906085000000     0.024520000000     0.128985000000     0          
O2       O      0.921600000000     0.000000000000     0.078400000000     0          
C1       C      0.897795000000     0.034960000000     0.147795000000     0          
C2       C      0.909440000000     0.058110000000     0.159440000000     0          
C3       C      0.898620000000     0.068925000000     0.181075000000     0          
H1       H      0.884495000000     0.061866500000     0.188133500000     0          
O1       O      0.871015000000     0.475480000000     0.093915000000     0          
C1       C      0.852205000000     0.465040000000     0.102205000000     0          
C2       C      0.840560000000     0.441890000000     0.090560000000     0          
C3       C      0.818925000000     0.431075000000     0.101380000000     0          
H1       H      0.811866500000     0.438133500000     0.115505000000     0          
O1       O      0.871015000000     0.024520000000     0.406085000000     0          
C1       C      0.852205000000     0.034960000000     0.397795000000     0          
C2       C      0.840560000000     0.058110000000     0.409440000000     0          
C3       C      0.818925000000     0.068925000000     0.398620000000     0          
H1       H      0.811866500000     0.061866500000     0.384495000000     0          
O1       O      0.975480000000     0.371015000000     0.406085000000     0          
C1       C      0.965040000000     0.352205000000     0.397795000000     0          
C2       C      0.941890000000     0.340560000000     0.409440000000     0          
C3       C      0.931075000000     0.318925000000     0.398620000000     0          
H1       H      0.938133500000     0.311866500000     0.384495000000     0          
O1       O      0.628985000000     0.475480000000     0.406085000000     0          
C1       C      0.647795000000     0.465040000000     0.397795000000     0          
C2       C      0.659440000000     0.441890000000     0.409440000000     0          
C3       C      0.681075000000     0.431075000000     0.398620000000     0          
H1       H      0.688133500000     0.438133500000     0.384495000000     0          
O1       O      0.524520000000     0.128985000000     0.406085000000     0          
C1       C      0.534960000000     0.147795000000     0.397795000000     0          
C2       C      0.558110000000     0.159440000000     0.409440000000     0          
C3       C      0.568925000000     0.181075000000     0.398620000000     0          
H1       H      0.561866500000     0.188133500000     0.384495000000     0          
O1       O      0.628985000000     0.024520000000     0.093915000000     0          
C1       C      0.647795000000     0.034960000000     0.102205000000     0          
C2       C      0.659440000000     0.058110000000     0.090560000000     0          
C3       C      0.681075000000     0.068925000000     0.101380000000     0          
H1       H      0.688133500000     0.061866500000     0.115505000000     0          
O1       O      0.975480000000     0.128985000000     0.093915000000     0          
C1       C      0.965040000000     0.147795000000     0.102205000000     0          
C2       C      0.941890000000     0.159440000000     0.090560000000     0          
C3       C      0.931075000000     0.181075000000     0.101380000000     0          
H1       H      0.938133500000     0.188133500000     0.115505000000     0          
O1       O      0.524520000000     0.371015000000     0.093915000000     0          
C1       C      0.534960000000     0.352205000000     0.102205000000     0          
C2       C      0.558110000000     0.340560000000     0.090560000000     0          
C3       C      0.568925000000     0.318925000000     0.101380000000     0          
H1       H      0.561866500000     0.311866500000     0.115505000000     0          
O1       O      0.906085000000     0.128985000000     0.024520000000     0          
C1       C      0.897795000000     0.147795000000     0.034960000000     0          
C2       C      0.909440000000     0.159440000000     0.058110000000     0          
C3       C      0.898620000000     0.181075000000     0.068925000000     0          
H1       H      0.884495000000     0.188133500000     0.061866500000     0          
O1       O      0.871015000000     0.406085000000     0.024520000000     0          
C1       C      0.852205000000     0.397795000000     0.034960000000     0          
C2       C      0.840560000000     0.409440000000     0.058110000000     0          
C3       C      0.818925000000     0.398620000000     0.068925000000     0          
H1       H      0.811866500000     0.384495000000     0.061866500000     0          
O1       O      0.593915000000     0.371015000000     0.024520000000     0          
C1       C      0.602205000000     0.352205000000     0.034960000000     0          
C2       C      0.590560000000     0.340560000000     0.058110000000     0          
C3       C      0.601380000000     0.318925000000     0.068925000000     0          
H1       H      0.615505000000     0.311866500000     0.061866500000     0          
O1       O      0.628985000000     0.093915000000     0.024520000000     0          
C1       C      0.647795000000     0.102205000000     0.034960000000     0          
C2       C      0.659440000000     0.090560000000     0.058110000000     0          
C3       C      0.681075000000     0.101380000000     0.068925000000     0          
H1       H      0.688133500000     0.115505000000     0.061866500000     0          
O1       O      0.906085000000     0.371015000000     0.475480000000     0          
C1       C      0.897795000000     0.352205000000     0.465040000000     0          
C2       C      0.909440000000     0.340560000000     0.441890000000     0          
C3       C      0.898620000000     0.318925000000     0.431075000000     0          
H1       H      0.884495000000     0.311866500000     0.438133500000     0          
O1       O      0.628985000000     0.406085000000     0.475480000000     0          
C1       C      0.647795000000     0.397795000000     0.465040000000     0          
C2       C      0.659440000000     0.409440000000     0.441890000000     0          
C3       C      0.681075000000     0.398620000000     0.431075000000     0          
H1       H      0.688133500000     0.384495000000     0.438133500000     0          
O1       O      0.593915000000     0.128985000000     0.475480000000     0          
C1       C      0.602205000000     0.147795000000     0.465040000000     0          
C2       C      0.590560000000     0.159440000000     0.441890000000     0          
C3       C      0.601380000000     0.181075000000     0.431075000000     0          
H1       H      0.615505000000     0.188133500000     0.438133500000     0          
O1       O      0.871015000000     0.093915000000     0.475480000000     0          
C1       C      0.852205000000     0.102205000000     0.465040000000     0          
C2       C      0.840560000000     0.090560000000     0.441890000000     0          
C3       C      0.818925000000     0.101380000000     0.431075000000     0          
H1       H      0.811866500000     0.115505000000     0.438133500000     0          
O1       O      0.524520000000     0.406085000000     0.128985000000     0          
C1       C      0.534960000000     0.397795000000     0.147795000000     0          
C2       C      0.558110000000     0.409440000000     0.159440000000     0          
C3       C      0.568925000000     0.398620000000     0.181075000000     0          
H1       H      0.561866500000     0.384495000000     0.188133500000     0          
O1       O      0.593915000000     0.024520000000     0.128985000000     0          
C1       C      0.602205000000     0.034960000000     0.147795000000     0          
C2       C      0.590560000000     0.058110000000     0.159440000000     0          
C3       C      0.601380000000     0.068925000000     0.181075000000     0          
H1       H      0.615505000000     0.061866500000     0.188133500000     0          
O1       O      0.975480000000     0.093915000000     0.128985000000     0          
C1       C      0.965040000000     0.102205000000     0.147795000000     0          
C2       C      0.941890000000     0.090560000000     0.159440000000     0          
C3       C      0.931075000000     0.101380000000     0.181075000000     0          
H1       H      0.938133500000     0.115505000000     0.188133500000     0          
O1       O      0.906085000000     0.475480000000     0.128985000000     0          
C1       C      0.897795000000     0.465040000000     0.147795000000     0          
C2       C      0.909440000000     0.441890000000     0.159440000000     0          
C3       C      0.898620000000     0.431075000000     0.181075000000     0          
H1       H      0.884495000000     0.438133500000     0.188133500000     0          
O1       O      0.524520000000     0.093915000000     0.371015000000     0          
C1       C      0.534960000000     0.102205000000     0.352205000000     0          
C2       C      0.558110000000     0.090560000000     0.340560000000     0          
C3       C      0.568925000000     0.101380000000     0.318925000000     0          
H1       H      0.561866500000     0.115505000000     0.311866500000     0          
O1       O      0.906085000000     0.024520000000     0.371015000000     0          
C1       C      0.897795000000     0.034960000000     0.352205000000     0          
C2       C      0.909440000000     0.058110000000     0.340560000000     0          
C3       C      0.898620000000     0.068925000000     0.318925000000     0          
H1       H      0.884495000000     0.061866500000     0.311866500000     0          
O1       O      0.975480000000     0.406085000000     0.371015000000     0          
C1       C      0.965040000000     0.397795000000     0.352205000000     0          
C2       C      0.941890000000     0.409440000000     0.340560000000     0          
C3       C      0.931075000000     0.398620000000     0.318925000000     0          
H1       H      0.938133500000     0.384495000000     0.311866500000     0          
O1       O      0.593915000000     0.475480000000     0.371015000000     0          
C1       C      0.602205000000     0.465040000000     0.352205000000     0          
C2       C      0.590560000000     0.441890000000     0.340560000000     0          
C3       C      0.601380000000     0.431075000000     0.318925000000     0          
H1       H      0.615505000000     0.438133500000     0.311866500000     0          
O1       O      0.628985000000     0.024520000000     0.406085000000     0          
C1       C      0.647795000000     0.034960000000     0.397795000000     0          
C2       C      0.659440000000     0.058110000000     0.409440000000     0          
C3       C      0.681075000000     0.068925000000     0.398620000000     0          
H1       H      0.688133500000     0.061866500000     0.384495000000     0          
O1       O      0.628985000000     0.475480000000     0.093915000000     0          
C1       C      0.647795000000     0.465040000000     0.102205000000     0          
C2       C      0.659440000000     0.441890000000     0.090560000000     0          
C3       C      0.681075000000     0.431075000000     0.101380000000     0          
H1       H      0.688133500000     0.438133500000     0.115505000000     0          
O1       O      0.524520000000     0.128985000000     0.093915000000     0          
C1       C      0.534960000000     0.147795000000     0.102205000000     0          
C2       C      0.558110000000     0.159440000000     0.090560000000     0          
C3       C      0.568925000000     0.181075000000     0.101380000000     0          
H1       H      0.561866500000     0.188133500000     0.115505000000     0          
O1       O      0.871015000000     0.024520000000     0.093915000000     0          
C1       C      0.852205000000     0.034960000000     0.102205000000     0          
C2       C      0.840560000000     0.058110000000     0.090560000000     0          
C3       C      0.818925000000     0.068925000000     0.101380000000     0          
H1       H      0.811866500000     0.061866500000     0.115505000000     0          
O1       O      0.975480000000     0.371015000000     0.093915000000     0          
C1       C      0.965040000000     0.352205000000     0.102205000000     0          
C2       C      0.941890000000     0.340560000000     0.090560000000     0          
C3       C      0.931075000000     0.318925000000     0.101380000000     0          
H1       H      0.938133500000     0.311866500000     0.115505000000     0          
O1       O      0.871015000000     0.475480000000     0.406085000000     0          
C1       C      0.852205000000     0.465040000000     0.397795000000     0          
C2       C      0.840560000000     0.441890000000     0.409440000000     0          
C3       C      0.818925000000     0.431075000000     0.398620000000     0          
H1       H      0.811866500000     0.438133500000     0.384495000000     0          
O1       O      0.524520000000     0.371015000000     0.406085000000     0          
C1       C      0.534960000000     0.352205000000     0.397795000000     0          
C2       C      0.558110000000     0.340560000000     0.409440000000     0          
C3       C      0.568925000000     0.318925000000     0.398620000000     0          
H1       H      0.561866500000     0.311866500000     0.384495000000     0          
O1       O      0.975480000000     0.128985000000     0.406085000000     0          
C1       C      0.965040000000     0.147795000000     0.397795000000     0          
C2       C      0.941890000000     0.159440000000     0.409440000000     0          
C3       C      0.931075000000     0.181075000000     0.398620000000     0          
H1       H      0.938133500000     0.188133500000     0.384495000000     0          
Cu1      Cu     0.608060000000     0.141940000000     0.250000000000     0          
O1       O      0.593915000000     0.121015000000     0.225480000000     0          
O2       O      0.578400000000     0.171600000000     0.250000000000     0          
C1       C      0.602205000000     0.102205000000     0.215040000000     0          
C2       C      0.590560000000     0.090560000000     0.191890000000     0          
C1s      C      0.579350000000     0.329350000000     0.329350000000     0          
C2s      C      0.690450000000     0.000000000000     0.440450000000     0          
Cu1      Cu     0.608060000000     0.358060000000     0.250000000000     0          
O1       O      0.628985000000     0.343915000000     0.225480000000     0          
O2       O      0.578400000000     0.328400000000     0.250000000000     0          
C1       C      0.647795000000     0.352205000000     0.215040000000     0          
C2       C      0.659440000000     0.340560000000     0.191890000000     0          
C3       C      0.681075000000     0.351380000000     0.181075000000     0          
H1       H      0.688133500000     0.365505000000     0.188133500000     0          
C1s      C      0.920650000000     0.329350000000     0.329350000000     0          
C2s      C      0.750000000000     0.440450000000     0.440450000000     0          
Cu1      Cu     0.891940000000     0.358060000000     0.250000000000     0          
O1       O      0.906085000000     0.378985000000     0.225480000000     0          
O2       O      0.921600000000     0.328400000000     0.250000000000     0          
C1       C      0.897795000000     0.397795000000     0.215040000000     0          
C2       C      0.909440000000     0.409440000000     0.191890000000     0          
C1s      C      0.920650000000     0.170650000000     0.329350000000     0          
C2s      C      0.809550000000     0.000000000000     0.440450000000     0          
Cu1      Cu     0.891940000000     0.141940000000     0.250000000000     0          
O1       O      0.871015000000     0.156085000000     0.225480000000     0          
O2       O      0.921600000000     0.171600000000     0.250000000000     0          
C1       C      0.852205000000     0.147795000000     0.215040000000     0          
C2       C      0.840560000000     0.159440000000     0.191890000000     0          
C3       C      0.818925000000     0.148620000000     0.181075000000     0          
H1       H      0.811866500000     0.134495000000     0.188133500000     0          
C1s      C      0.579350000000     0.170650000000     0.329350000000     0          
C2s      C      0.750000000000     0.059550000000     0.440450000000     0          
O1       O      0.593915000000     0.378985000000     0.274520000000     0          
C1       C      0.602205000000     0.397795000000     0.284960000000     0          
C2       C      0.590560000000     0.409440000000     0.308110000000     0          
C1s      C      0.579350000000     0.170650000000     0.170650000000     0          
C2s      C      0.690450000000     0.000000000000     0.059550000000     0          
O1       O      0.871015000000     0.343915000000     0.274520000000     0          
C1       C      0.852205000000     0.352205000000     0.284960000000     0          
C2       C      0.840560000000     0.340560000000     0.308110000000     0          
C3       C      0.818925000000     0.351380000000     0.318925000000     0          
H1       H      0.811866500000     0.365505000000     0.311866500000     0          
C1s      C      0.579350000000     0.329350000000     0.170650000000     0          
C2s      C      0.750000000000     0.440450000000     0.059550000000     0          
O1       O      0.906085000000     0.121015000000     0.274520000000     0          
C1       C      0.897795000000     0.102205000000     0.284960000000     0          
C2       C      0.909440000000     0.090560000000     0.308110000000     0          
C1s      C      0.920650000000     0.329350000000     0.170650000000     0          
C2s      C      0.809550000000     0.000000000000     0.059550000000     0          
O1       O      0.628985000000     0.156085000000     0.274520000000     0          
C1       C      0.647795000000     0.147795000000     0.284960000000     0          
C2       C      0.659440000000     0.159440000000     0.308110000000     0          
C3       C      0.681075000000     0.148620000000     0.318925000000     0          
H1       H      0.688133500000     0.134495000000     0.311866500000     0          
C1s      C      0.920650000000     0.170650000000     0.170650000000     0          
C2s      C      0.750000000000     0.059550000000     0.059550000000     0          
Cu1      Cu     0.500000000000     0.358060000000     0.141940000000     0          
O1       O      0.975480000000     0.343915000000     0.121015000000     0          
O2       O      0.500000000000     0.328400000000     0.171600000000     0          
C3       C      0.931075000000     0.351380000000     0.068925000000     0          
H1       H      0.938133500000     0.365505000000     0.061866500000     0          
C2s      C      0.690450000000     0.440450000000     0.000000000000     0          
Cu1      Cu     0.891940000000     0.250000000000     0.141940000000     0          
O1       O      0.906085000000     0.225480000000     0.121015000000     0          
O2       O      0.921600000000     0.250000000000     0.171600000000     0          
C1       C      0.897795000000     0.215040000000     0.102205000000     0          
C2       C      0.909440000000     0.191890000000     0.090560000000     0          
C2s      C      0.809550000000     0.440450000000     0.000000000000     0          
Cu1      Cu     0.500000000000     0.141940000000     0.141940000000     0          
O1       O      0.524520000000     0.156085000000     0.121015000000     0          
O2       O      0.500000000000     0.171600000000     0.171600000000     0          
C3       C      0.568925000000     0.148620000000     0.068925000000     0          
H1       H      0.561866500000     0.134495000000     0.061866500000     0          
C2s      C      0.809550000000     0.059550000000     0.000000000000     0          
Cu1      Cu     0.608060000000     0.250000000000     0.141940000000     0          
O1       O      0.593915000000     0.274520000000     0.121015000000     0          
O2       O      0.578400000000     0.250000000000     0.171600000000     0          
C1       C      0.602205000000     0.284960000000     0.102205000000     0          
C2       C      0.590560000000     0.308110000000     0.090560000000     0          
C2s      C      0.690450000000     0.059550000000     0.000000000000     0          
Cu1      Cu     0.500000000000     0.141940000000     0.358060000000     0          
O1       O      0.975480000000     0.156085000000     0.378985000000     0          
O2       O      0.500000000000     0.171600000000     0.328400000000     0          
C3       C      0.931075000000     0.148620000000     0.431075000000     0          
H1       H      0.938133500000     0.134495000000     0.438133500000     0          
Cu1      Cu     0.608060000000     0.250000000000     0.358060000000     0          
O1       O      0.593915000000     0.225480000000     0.378985000000     0          
O2       O      0.578400000000     0.250000000000     0.328400000000     0          
C1       C      0.602205000000     0.215040000000     0.397795000000     0          
C2       C      0.590560000000     0.191890000000     0.409440000000     0          
Cu1      Cu     0.500000000000     0.358060000000     0.358060000000     0          
O1       O      0.524520000000     0.343915000000     0.378985000000     0          
O2       O      0.500000000000     0.328400000000     0.328400000000     0          
C3       C      0.568925000000     0.351380000000     0.431075000000     0          
H1       H      0.561866500000     0.365505000000     0.438133500000     0          
Cu1      Cu     0.891940000000     0.250000000000     0.358060000000     0          
O1       O      0.906085000000     0.274520000000     0.378985000000     0          
O2       O      0.921600000000     0.250000000000     0.328400000000     0          
C1       C      0.897795000000     0.284960000000     0.397795000000     0          
C2       C      0.909440000000     0.308110000000     0.409440000000     0          
O1       O      0.871015000000     0.225480000000     0.343915000000     0          
C1       C      0.852205000000     0.215040000000     0.352205000000     0          
C2       C      0.840560000000     0.191890000000     0.340560000000     0          
C3       C      0.818925000000     0.181075000000     0.351380000000     0          
H1       H      0.811866500000     0.188133500000     0.365505000000     0          
O1       O      0.871015000000     0.274520000000     0.156085000000     0          
C1       C      0.852205000000     0.284960000000     0.147795000000     0          
C2       C      0.840560000000     0.308110000000     0.159440000000     0          
C3       C      0.818925000000     0.318925000000     0.148620000000     0          
H1       H      0.811866500000     0.311866500000     0.134495000000     0          
O1       O      0.975480000000     0.121015000000     0.156085000000     0          
C3       C      0.931075000000     0.068925000000     0.148620000000     0          
H1       H      0.938133500000     0.061866500000     0.134495000000     0          
O1       O      0.628985000000     0.225480000000     0.156085000000     0          
C1       C      0.647795000000     0.215040000000     0.147795000000     0          
C2       C      0.659440000000     0.191890000000     0.159440000000     0          
C3       C      0.681075000000     0.181075000000     0.148620000000     0          
H1       H      0.688133500000     0.188133500000     0.134495000000     0          
O1       O      0.524520000000     0.378985000000     0.156085000000     0          
C3       C      0.568925000000     0.431075000000     0.148620000000     0          
H1       H      0.561866500000     0.438133500000     0.134495000000     0          
O1       O      0.628985000000     0.274520000000     0.343915000000     0          
C1       C      0.647795000000     0.284960000000     0.352205000000     0          
C2       C      0.659440000000     0.308110000000     0.340560000000     0          
C3       C      0.681075000000     0.318925000000     0.351380000000     0          
H1       H      0.688133500000     0.311866500000     0.365505000000     0          
O1       O      0.975480000000     0.378985000000     0.343915000000     0          
C3       C      0.931075000000     0.431075000000     0.351380000000     0          
H1       H      0.938133500000     0.438133500000     0.365505000000     0          
O1       O      0.524520000000     0.121015000000     0.343915000000     0          
C3       C      0.568925000000     0.068925000000     0.351380000000     0          
H1       H      0.561866500000     0.061866500000     0.365505000000     0          
O1       O      0.906085000000     0.378985000000     0.274520000000     0          
C1       C      0.897795000000     0.397795000000     0.284960000000     0          
C2       C      0.909440000000     0.409440000000     0.308110000000     0          
O1       O      0.871015000000     0.156085000000     0.274520000000     0          
C1       C      0.852205000000     0.147795000000     0.284960000000     0          
C2       C      0.840560000000     0.159440000000     0.308110000000     0          
C3       C      0.818925000000     0.148620000000     0.318925000000     0          
H1       H      0.811866500000     0.134495000000     0.311866500000     0          
O1       O      0.593915000000     0.121015000000     0.274520000000     0          
C1       C      0.602205000000     0.102205000000     0.284960000000     0          
C2       C      0.590560000000     0.090560000000     0.308110000000     0          
O1       O      0.628985000000     0.343915000000     0.274520000000     0          
C1       C      0.647795000000     0.352205000000     0.284960000000     0          
C2       C      0.659440000000     0.340560000000     0.308110000000     0          
C3       C      0.681075000000     0.351380000000     0.318925000000     0          
H1       H      0.688133500000     0.365505000000     0.311866500000     0          
O1       O      0.906085000000     0.121015000000     0.225480000000     0          
C1       C      0.897795000000     0.102205000000     0.215040000000     0          
C2       C      0.909440000000     0.090560000000     0.191890000000     0          
O1       O      0.628985000000     0.156085000000     0.225480000000     0          
C1       C      0.647795000000     0.147795000000     0.215040000000     0          
C2       C      0.659440000000     0.159440000000     0.191890000000     0          
C3       C      0.681075000000     0.148620000000     0.181075000000     0          
H1       H      0.688133500000     0.134495000000     0.188133500000     0          
O1       O      0.593915000000     0.378985000000     0.225480000000     0          
C1       C      0.602205000000     0.397795000000     0.215040000000     0          
C2       C      0.590560000000     0.409440000000     0.191890000000     0          
O1       O      0.871015000000     0.343915000000     0.225480000000     0          
C1       C      0.852205000000     0.352205000000     0.215040000000     0          
C2       C      0.840560000000     0.340560000000     0.191890000000     0          
C3       C      0.818925000000     0.351380000000     0.181075000000     0          
H1       H      0.811866500000     0.365505000000     0.188133500000     0          
O1       O      0.524520000000     0.156085000000     0.378985000000     0          
C3       C      0.568925000000     0.148620000000     0.431075000000     0          
H1       H      0.561866500000     0.134495000000     0.438133500000     0          
O1       O      0.593915000000     0.274520000000     0.378985000000     0          
C1       C      0.602205000000     0.284960000000     0.397795000000     0          
C2       C      0.590560000000     0.308110000000     0.409440000000     0          
O1       O      0.975480000000     0.343915000000     0.378985000000     0          
C3       C      0.931075000000     0.351380000000     0.431075000000     0          
H1       H      0.938133500000     0.365505000000     0.438133500000     0          
O1       O      0.906085000000     0.225480000000     0.378985000000     0          
C1       C      0.897795000000     0.215040000000     0.397795000000     0          
C2       C      0.909440000000     0.191890000000     0.409440000000     0          
O1       O      0.524520000000     0.343915000000     0.121015000000     0          
C3       C      0.568925000000     0.351380000000     0.068925000000     0          
H1       H      0.561866500000     0.365505000000     0.061866500000     0          
O1       O      0.906085000000     0.274520000000     0.121015000000     0          
C1       C      0.897795000000     0.284960000000     0.102205000000     0          
C2       C      0.909440000000     0.308110000000     0.090560000000     0          
O1       O      0.975480000000     0.156085000000     0.121015000000     0          
C3       C      0.931075000000     0.148620000000     0.068925000000     0          
H1       H      0.938133500000     0.134495000000     0.061866500000     0          
O1       O      0.593915000000     0.225480000000     0.121015000000     0          
C1       C      0.602205000000     0.215040000000     0.102205000000     0          
C2       C      0.590560000000     0.191890000000     0.090560000000     0          
O1       O      0.628985000000     0.274520000000     0.156085000000     0          
C1       C      0.647795000000     0.284960000000     0.147795000000     0          
C2       C      0.659440000000     0.308110000000     0.159440000000     0          
C3       C      0.681075000000     0.318925000000     0.148620000000     0          
H1       H      0.688133500000     0.311866500000     0.134495000000     0          
O1       O      0.628985000000     0.225480000000     0.343915000000     0          
C1       C      0.647795000000     0.215040000000     0.352205000000     0          
C2       C      0.659440000000     0.191890000000     0.340560000000     0          
C3       C      0.681075000000     0.181075000000     0.351380000000     0          
H1       H      0.688133500000     0.188133500000     0.365505000000     0          
O1       O      0.524520000000     0.378985000000     0.343915000000     0          
C3       C      0.568925000000     0.431075000000     0.351380000000     0          
H1       H      0.561866500000     0.438133500000     0.365505000000     0          
O1       O      0.871015000000     0.274520000000     0.343915000000     0          
C1       C      0.852205000000     0.284960000000     0.352205000000     0          
C2       C      0.840560000000     0.308110000000     0.340560000000     0          
C3       C      0.818925000000     0.318925000000     0.351380000000     0          
H1       H      0.811866500000     0.311866500000     0.365505000000     0          
O1       O      0.975480000000     0.121015000000     0.343915000000     0          
C3       C      0.931075000000     0.068925000000     0.351380000000     0          
H1       H      0.938133500000     0.061866500000     0.365505000000     0          
O1       O      0.871015000000     0.225480000000     0.156085000000     0          
C1       C      0.852205000000     0.215040000000     0.147795000000     0          
C2       C      0.840560000000     0.191890000000     0.159440000000     0          
C3       C      0.818925000000     0.181075000000     0.148620000000     0          
H1       H      0.811866500000     0.188133500000     0.134495000000     0          
O1       O      0.524520000000     0.121015000000     0.156085000000     0          
C3       C      0.568925000000     0.068925000000     0.148620000000     0          
H1       H      0.561866500000     0.061866500000     0.134495000000     0          
O1       O      0.975480000000     0.378985000000     0.156085000000     0          
C3       C      0.931075000000     0.431075000000     0.148620000000     0          
H1       H      0.938133500000     0.438133500000     0.134495000000     0          
Cu1      Cu     0.858060000000     0.391940000000     0.250000000000     0          
O1       O      0.843915000000     0.371015000000     0.225480000000     0          
O2       O      0.828400000000     0.421600000000     0.250000000000     0          
C3       C      0.851380000000     0.318925000000     0.181075000000     0          
H1       H      0.865505000000     0.311866500000     0.188133500000     0          
C1s      C      0.829350000000     0.079350000000     0.329350000000     0          
C2s      C      0.940450000000     0.250000000000     0.440450000000     0          
Cu1      Cu     0.858060000000     0.108060000000     0.250000000000     0          
O1       O      0.878985000000     0.093915000000     0.225480000000     0          
O2       O      0.828400000000     0.078400000000     0.250000000000     0          
C1s      C      0.670650000000     0.079350000000     0.329350000000     0          
C2s      C      0.500000000000     0.190450000000     0.440450000000     0          
Cu1      Cu     0.641940000000     0.108060000000     0.250000000000     0          
O1       O      0.656085000000     0.128985000000     0.225480000000     0          
O2       O      0.671600000000     0.078400000000     0.250000000000     0          
C3       C      0.648620000000     0.181075000000     0.181075000000     0          
H1       H      0.634495000000     0.188133500000     0.188133500000     0          
C1s      C      0.670650000000     0.420650000000     0.329350000000     0          
C2s      C      0.559550000000     0.250000000000     0.440450000000     0          
Cu1      Cu     0.641940000000     0.391940000000     0.250000000000     0          
O1       O      0.621015000000     0.406085000000     0.225480000000     0          
O2       O      0.671600000000     0.421600000000     0.250000000000     0          
C1s      C      0.829350000000     0.420650000000     0.329350000000     0          
C2s      C      0.500000000000     0.309550000000     0.440450000000     0          
O1       O      0.843915000000     0.128985000000     0.274520000000     0          
C3       C      0.851380000000     0.181075000000     0.318925000000     0          
H1       H      0.865505000000     0.188133500000     0.311866500000     0          
C1s      C      0.829350000000     0.420650000000     0.170650000000     0          
C2s      C      0.940450000000     0.250000000000     0.059550000000     0          
O1       O      0.621015000000     0.093915000000     0.274520000000     0          
C1s      C      0.829350000000     0.079350000000     0.170650000000     0          
C2s      C      0.500000000000     0.190450000000     0.059550000000     0          
O1       O      0.656085000000     0.371015000000     0.274520000000     0          
C3       C      0.648620000000     0.318925000000     0.318925000000     0          
H1       H      0.634495000000     0.311866500000     0.311866500000     0          
C1s      C      0.670650000000     0.079350000000     0.170650000000     0          
C2s      C      0.559550000000     0.250000000000     0.059550000000     0          
O1       O      0.878985000000     0.406085000000     0.274520000000     0          
C1s      C      0.670650000000     0.420650000000     0.170650000000     0          
C2s      C      0.500000000000     0.309550000000     0.059550000000     0          
Cu1      Cu     0.750000000000     0.108060000000     0.141940000000     0          
O1       O      0.725480000000     0.093915000000     0.121015000000     0          
O2       O      0.750000000000     0.078400000000     0.171600000000     0          
C1       C      0.715040000000     0.102205000000     0.102205000000     0          
C2       C      0.691890000000     0.090560000000     0.090560000000     0          
C2s      C      0.940450000000     0.190450000000     0.000000000000     0          
Cu1      Cu     0.641940000000     0.000000000000     0.141940000000     0          
O1       O      0.656085000000     0.475480000000     0.121015000000     0          
O2       O      0.671600000000     0.000000000000     0.171600000000     0          
C3       C      0.648620000000     0.431075000000     0.068925000000     0          
H1       H      0.634495000000     0.438133500000     0.061866500000     0          
C2s      C      0.559550000000     0.190450000000     0.000000000000     0          
Cu1      Cu     0.750000000000     0.391940000000     0.141940000000     0          
O1       O      0.774520000000     0.406085000000     0.121015000000     0          
O2       O      0.750000000000     0.421600000000     0.171600000000     0          
C1       C      0.784960000000     0.397795000000     0.102205000000     0          
C2       C      0.808110000000     0.409440000000     0.090560000000     0          
C2s      C      0.559550000000     0.309550000000     0.000000000000     0          
Cu1      Cu     0.858060000000     0.000000000000     0.141940000000     0          
O1       O      0.843915000000     0.024520000000     0.121015000000     0          
O2       O      0.828400000000     0.000000000000     0.171600000000     0          
C3       C      0.851380000000     0.068925000000     0.068925000000     0          
H1       H      0.865505000000     0.061866500000     0.061866500000     0          
C2s      C      0.940450000000     0.309550000000     0.000000000000     0          
Cu1      Cu     0.750000000000     0.391940000000     0.358060000000     0          
O1       O      0.725480000000     0.406085000000     0.378985000000     0          
O2       O      0.750000000000     0.421600000000     0.328400000000     0          
C1       C      0.715040000000     0.397795000000     0.397795000000     0          
C2       C      0.691890000000     0.409440000000     0.409440000000     0          
Cu1      Cu     0.858060000000     0.000000000000     0.358060000000     0          
O1       O      0.843915000000     0.475480000000     0.378985000000     0          
O2       O      0.828400000000     0.000000000000     0.328400000000     0          
C3       C      0.851380000000     0.431075000000     0.431075000000     0          
H1       H      0.865505000000     0.438133500000     0.438133500000     0          
Cu1      Cu     0.750000000000     0.108060000000     0.358060000000     0          
O1       O      0.774520000000     0.093915000000     0.378985000000     0          
O2       O      0.750000000000     0.078400000000     0.328400000000     0          
C1       C      0.784960000000     0.102205000000     0.397795000000     0          
C2       C      0.808110000000     0.090560000000     0.409440000000     0          
Cu1      Cu     0.641940000000     0.000000000000     0.358060000000     0          
O1       O      0.656085000000     0.024520000000     0.378985000000     0          
O2       O      0.671600000000     0.000000000000     0.328400000000     0          
C3       C      0.648620000000     0.068925000000     0.431075000000     0          
H1       H      0.634495000000     0.061866500000     0.438133500000     0          
O1       O      0.621015000000     0.475480000000     0.343915000000     0          
O1       O      0.621015000000     0.024520000000     0.156085000000     0          
O1       O      0.725480000000     0.371015000000     0.156085000000     0          
C1       C      0.715040000000     0.352205000000     0.147795000000     0          
C2       C      0.691890000000     0.340560000000     0.159440000000     0          
O1       O      0.878985000000     0.475480000000     0.156085000000     0          
O1       O      0.774520000000     0.128985000000     0.156085000000     0          
C1       C      0.784960000000     0.147795000000     0.147795000000     0          
C2       C      0.808110000000     0.159440000000     0.159440000000     0          
O1       O      0.878985000000     0.024520000000     0.343915000000     0          
O1       O      0.725480000000     0.128985000000     0.343915000000     0          
C1       C      0.715040000000     0.147795000000     0.352205000000     0          
C2       C      0.691890000000     0.159440000000     0.340560000000     0          
O1       O      0.774520000000     0.371015000000     0.343915000000     0          
C1       C      0.784960000000     0.352205000000     0.352205000000     0          
C2       C      0.808110000000     0.340560000000     0.340560000000     0          
O1       O      0.656085000000     0.128985000000     0.274520000000     0          
C3       C      0.648620000000     0.181075000000     0.318925000000     0          
H1       H      0.634495000000     0.188133500000     0.311866500000     0          
O1       O      0.621015000000     0.406085000000     0.274520000000     0          
O1       O      0.843915000000     0.371015000000     0.274520000000     0          
C3       C      0.851380000000     0.318925000000     0.318925000000     0          
H1       H      0.865505000000     0.311866500000     0.311866500000     0          
O1       O      0.878985000000     0.093915000000     0.274520000000     0          
O1       O      0.656085000000     0.371015000000     0.225480000000     0          
C3       C      0.648620000000     0.318925000000     0.181075000000     0          
H1       H      0.634495000000     0.311866500000     0.188133500000     0          
O1       O      0.878985000000     0.406085000000     0.225480000000     0          
O1       O      0.843915000000     0.128985000000     0.225480000000     0          
C3       C      0.851380000000     0.181075000000     0.181075000000     0          
H1       H      0.865505000000     0.188133500000     0.188133500000     0          
O1       O      0.621015000000     0.093915000000     0.225480000000     0          
O1       O      0.774520000000     0.406085000000     0.378985000000     0          
C1       C      0.784960000000     0.397795000000     0.397795000000     0          
C2       C      0.808110000000     0.409440000000     0.409440000000     0          
O1       O      0.843915000000     0.024520000000     0.378985000000     0          
C3       C      0.851380000000     0.068925000000     0.431075000000     0          
H1       H      0.865505000000     0.061866500000     0.438133500000     0          
O1       O      0.725480000000     0.093915000000     0.378985000000     0          
C1       C      0.715040000000     0.102205000000     0.397795000000     0          
C2       C      0.691890000000     0.090560000000     0.409440000000     0          
O1       O      0.656085000000     0.475480000000     0.378985000000     0          
C3       C      0.648620000000     0.431075000000     0.431075000000     0          
H1       H      0.634495000000     0.438133500000     0.438133500000     0          
O1       O      0.774520000000     0.093915000000     0.121015000000     0          
C1       C      0.784960000000     0.102205000000     0.102205000000     0          
C2       C      0.808110000000     0.090560000000     0.090560000000     0          
O1       O      0.656085000000     0.024520000000     0.121015000000     0          
C3       C      0.648620000000     0.068925000000     0.068925000000     0          
H1       H      0.634495000000     0.061866500000     0.061866500000     0          
O1       O      0.725480000000     0.406085000000     0.121015000000     0          
C1       C      0.715040000000     0.397795000000     0.102205000000     0          
C2       C      0.691890000000     0.409440000000     0.090560000000     0          
O1       O      0.843915000000     0.475480000000     0.121015000000     0          
C3       C      0.851380000000     0.431075000000     0.068925000000     0          
H1       H      0.865505000000     0.438133500000     0.061866500000     0          
O1       O      0.878985000000     0.024520000000     0.156085000000     0          
O1       O      0.878985000000     0.475480000000     0.343915000000     0          
O1       O      0.774520000000     0.128985000000     0.343915000000     0          
C1       C      0.784960000000     0.147795000000     0.352205000000     0          
C2       C      0.808110000000     0.159440000000     0.340560000000     0          
O1       O      0.621015000000     0.024520000000     0.343915000000     0          
O1       O      0.725480000000     0.371015000000     0.343915000000     0          
C1       C      0.715040000000     0.352205000000     0.352205000000     0          
C2       C      0.691890000000     0.340560000000     0.340560000000     0          
O1       O      0.621015000000     0.475480000000     0.156085000000     0          
O1       O      0.774520000000     0.371015000000     0.156085000000     0          
C1       C      0.784960000000     0.352205000000     0.147795000000     0          
C2       C      0.808110000000     0.340560000000     0.159440000000     0          
O1       O      0.725480000000     0.128985000000     0.156085000000     0          
C1       C      0.715040000000     0.147795000000     0.147795000000     0          
C2       C      0.691890000000     0.159440000000     0.159440000000     0          
Cu1      Cu     0.858060000000     0.141940000000     0.000000000000     0          
O1       O      0.843915000000     0.121015000000     0.475480000000     0          
O2       O      0.828400000000     0.171600000000     0.000000000000     0          
C1s      C      0.829350000000     0.329350000000     0.079350000000     0          
C2s      C      0.940450000000     0.000000000000     0.190450000000     0          
Cu1      Cu     0.858060000000     0.358060000000     0.000000000000     0          
O1       O      0.878985000000     0.343915000000     0.475480000000     0          
O2       O      0.828400000000     0.328400000000     0.000000000000     0          
C1s      C      0.670650000000     0.329350000000     0.079350000000     0          
C2s      C      0.500000000000     0.440450000000     0.190450000000     0          
Cu1      Cu     0.641940000000     0.358060000000     0.000000000000     0          
O1       O      0.656085000000     0.378985000000     0.475480000000     0          
O2       O      0.671600000000     0.328400000000     0.000000000000     0          
C1s      C      0.670650000000     0.170650000000     0.079350000000     0          
C2s      C      0.559550000000     0.000000000000     0.190450000000     0          
Cu1      Cu     0.641940000000     0.141940000000     0.000000000000     0          
O1       O      0.621015000000     0.156085000000     0.475480000000     0          
O2       O      0.671600000000     0.171600000000     0.000000000000     0          
C1s      C      0.829350000000     0.170650000000     0.079350000000     0          
C2s      C      0.500000000000     0.059550000000     0.190450000000     0          
O1       O      0.843915000000     0.378985000000     0.024520000000     0          
C1s      C      0.829350000000     0.170650000000     0.420650000000     0          
C2s      C      0.940450000000     0.000000000000     0.309550000000     0          
O1       O      0.621015000000     0.343915000000     0.024520000000     0          
C1s      C      0.829350000000     0.329350000000     0.420650000000     0          
C2s      C      0.500000000000     0.440450000000     0.309550000000     0          
O1       O      0.656085000000     0.121015000000     0.024520000000     0          
C1s      C      0.670650000000     0.329350000000     0.420650000000     0          
C2s      C      0.559550000000     0.000000000000     0.309550000000     0          
O1       O      0.878985000000     0.156085000000     0.024520000000     0          
C1s      C      0.670650000000     0.170650000000     0.420650000000     0          
C2s      C      0.500000000000     0.059550000000     0.309550000000     0          
Cu1      Cu     0.750000000000     0.358060000000     0.391940000000     0          
O1       O      0.725480000000     0.343915000000     0.371015000000     0          
O2       O      0.750000000000     0.328400000000     0.421600000000     0          
C2s      C      0.940450000000     0.440450000000     0.250000000000     0          
Cu1      Cu     0.641940000000     0.250000000000     0.391940000000     0          
O1       O      0.656085000000     0.225480000000     0.371015000000     0          
O2       O      0.671600000000     0.250000000000     0.421600000000     0          
C2s      C      0.559550000000     0.440450000000     0.250000000000     0          
Cu1      Cu     0.750000000000     0.141940000000     0.391940000000     0          
O1       O      0.774520000000     0.156085000000     0.371015000000     0          
O2       O      0.750000000000     0.171600000000     0.421600000000     0          
C2s      C      0.559550000000     0.059550000000     0.250000000000     0          
Cu1      Cu     0.858060000000     0.250000000000     0.391940000000     0          
O1       O      0.843915000000     0.274520000000     0.371015000000     0          
O2       O      0.828400000000     0.250000000000     0.421600000000     0          
C2s      C      0.940450000000     0.059550000000     0.250000000000     0          
Cu1      Cu     0.750000000000     0.141940000000     0.108060000000     0          
O1       O      0.725480000000     0.156085000000     0.128985000000     0          
O2       O      0.750000000000     0.171600000000     0.078400000000     0          
Cu1      Cu     0.858060000000     0.250000000000     0.108060000000     0          
O1       O      0.843915000000     0.225480000000     0.128985000000     0          
O2       O      0.828400000000     0.250000000000     0.078400000000     0          
Cu1      Cu     0.750000000000     0.358060000000     0.108060000000     0          
O1       O      0.774520000000     0.343915000000     0.128985000000     0          
O2       O      0.750000000000     0.328400000000     0.078400000000     0          
Cu1      Cu     0.641940000000     0.250000000000     0.108060000000     0          
O1       O      0.656085000000     0.274520000000     0.128985000000     0          
O2       O      0.671600000000     0.250000000000     0.078400000000     0          
O1       O      0.621015000000     0.225480000000     0.093915000000     0          
O1       O      0.621015000000     0.274520000000     0.406085000000     0          
O1       O      0.725480000000     0.121015000000     0.406085000000     0          
O1       O      0.878985000000     0.225480000000     0.406085000000     0          
O1       O      0.774520000000     0.378985000000     0.406085000000     0          
O1       O      0.878985000000     0.274520000000     0.093915000000     0          
O1       O      0.725480000000     0.378985000000     0.093915000000     0          
O1       O      0.774520000000     0.121015000000     0.093915000000     0          
O1       O      0.656085000000     0.378985000000     0.024520000000     0          
O1       O      0.621015000000     0.156085000000     0.024520000000     0          
O1       O      0.843915000000     0.121015000000     0.024520000000     0          
O1       O      0.878985000000     0.343915000000     0.024520000000     0          
O1       O      0.656085000000     0.121015000000     0.475480000000     0          
O1       O      0.878985000000     0.156085000000     0.475480000000     0          
O1       O      0.843915000000     0.378985000000     0.475480000000     0          
O1       O      0.621015000000     0.343915000000     0.475480000000     0          
O1       O      0.774520000000     0.156085000000     0.128985000000     0          
O1       O      0.843915000000     0.274520000000     0.128985000000     0          
O1       O      0.725480000000     0.343915000000     0.128985000000     0          
O1       O      0.656085000000     0.225480000000     0.128985000000     0          
O1       O      0.774520000000     0.343915000000     0.371015000000     0          
O1       O      0.656085000000     0.274520000000     0.371015000000     0          
O1       O      0.725480000000     0.156085000000     0.371015000000     0          
O1       O      0.843915000000     0.225480000000     0.371015000000     0          
O1       O      0.878985000000     0.274520000000     0.406085000000     0          
O1       O      0.878985000000     0.225480000000     0.093915000000     0          
O1       O      0.774520000000     0.378985000000     0.093915000000     0          
O1       O      0.621015000000     0.274520000000     0.093915000000     0          
O1       O      0.725480000000     0.121015000000     0.093915000000     0          
O1       O      0.621015000000     0.225480000000     0.406085000000     0          
O1       O      0.774520000000     0.121015000000     0.406085000000     0          
O1       O      0.725480000000     0.378985000000     0.406085000000     0          
Cu1      Cu     0.608060000000     0.391940000000     0.500000000000     0          
O1       O      0.593915000000     0.371015000000     0.975480000000     0          
O2       O      0.578400000000     0.421600000000     0.500000000000     0          
C1       C      0.602205000000     0.352205000000     0.965040000000     0          
C2       C      0.590560000000     0.340560000000     0.941890000000     0          
C3       C      0.601380000000     0.318925000000     0.931075000000     0          
H1       H      0.615505000000     0.311866500000     0.938133500000     0          
C1s      C      0.579350000000     0.079350000000     0.579350000000     0          
C2s      C      0.690450000000     0.250000000000     0.690450000000     0          
Cu1      Cu     0.608060000000     0.108060000000     0.500000000000     0          
O1       O      0.628985000000     0.093915000000     0.975480000000     0          
O2       O      0.578400000000     0.078400000000     0.500000000000     0          
C1       C      0.647795000000     0.102205000000     0.965040000000     0          
C2       C      0.659440000000     0.090560000000     0.941890000000     0          
C3       C      0.681075000000     0.101380000000     0.931075000000     0          
H1       H      0.688133500000     0.115505000000     0.938133500000     0          
C1s      C      0.920650000000     0.079350000000     0.579350000000     0          
C2s      C      0.750000000000     0.190450000000     0.690450000000     0          
Cu1      Cu     0.891940000000     0.108060000000     0.500000000000     0          
O1       O      0.906085000000     0.128985000000     0.975480000000     0          
O2       O      0.921600000000     0.078400000000     0.500000000000     0          
C1       C      0.897795000000     0.147795000000     0.965040000000     0          
C2       C      0.909440000000     0.159440000000     0.941890000000     0          
C3       C      0.898620000000     0.181075000000     0.931075000000     0          
H1       H      0.884495000000     0.188133500000     0.938133500000     0          
C1s      C      0.920650000000     0.420650000000     0.579350000000     0          
C2s      C      0.809550000000     0.250000000000     0.690450000000     0          
Cu1      Cu     0.891940000000     0.391940000000     0.500000000000     0          
O1       O      0.871015000000     0.406085000000     0.975480000000     0          
O2       O      0.921600000000     0.421600000000     0.500000000000     0          
C1       C      0.852205000000     0.397795000000     0.965040000000     0          
C2       C      0.840560000000     0.409440000000     0.941890000000     0          
C3       C      0.818925000000     0.398620000000     0.931075000000     0          
H1       H      0.811866500000     0.384495000000     0.938133500000     0          
C1s      C      0.579350000000     0.420650000000     0.579350000000     0          
C2s      C      0.750000000000     0.309550000000     0.690450000000     0          
O1       O      0.593915000000     0.128985000000     0.524520000000     0          
C1       C      0.602205000000     0.147795000000     0.534960000000     0          
C2       C      0.590560000000     0.159440000000     0.558110000000     0          
C3       C      0.601380000000     0.181075000000     0.568925000000     0          
H1       H      0.615505000000     0.188133500000     0.561866500000     0          
C1s      C      0.579350000000     0.420650000000     0.920650000000     0          
C2s      C      0.690450000000     0.250000000000     0.809550000000     0          
O1       O      0.871015000000     0.093915000000     0.524520000000     0          
C1       C      0.852205000000     0.102205000000     0.534960000000     0          
C2       C      0.840560000000     0.090560000000     0.558110000000     0          
C3       C      0.818925000000     0.101380000000     0.568925000000     0          
H1       H      0.811866500000     0.115505000000     0.561866500000     0          
C1s      C      0.579350000000     0.079350000000     0.920650000000     0          
C2s      C      0.750000000000     0.190450000000     0.809550000000     0          
O1       O      0.906085000000     0.371015000000     0.524520000000     0          
C1       C      0.897795000000     0.352205000000     0.534960000000     0          
C2       C      0.909440000000     0.340560000000     0.558110000000     0          
C3       C      0.898620000000     0.318925000000     0.568925000000     0          
H1       H      0.884495000000     0.311866500000     0.561866500000     0          
C1s      C      0.920650000000     0.079350000000     0.920650000000     0          
C2s      C      0.809550000000     0.250000000000     0.809550000000     0          
O1       O      0.628985000000     0.406085000000     0.524520000000     0          
C1       C      0.647795000000     0.397795000000     0.534960000000     0          
C2       C      0.659440000000     0.409440000000     0.558110000000     0          
C3       C      0.681075000000     0.398620000000     0.568925000000     0          
H1       H      0.688133500000     0.384495000000     0.561866500000     0          
C1s      C      0.920650000000     0.420650000000     0.920650000000     0          
C2s      C      0.750000000000     0.309550000000     0.809550000000     0          
Cu1      Cu     0.500000000000     0.108060000000     0.891940000000     0          
O1       O      0.975480000000     0.093915000000     0.871015000000     0          
O2       O      0.500000000000     0.078400000000     0.921600000000     0          
C1       C      0.965040000000     0.102205000000     0.852205000000     0          
C2       C      0.941890000000     0.090560000000     0.840560000000     0          
C3       C      0.931075000000     0.101380000000     0.818925000000     0          
H1       H      0.938133500000     0.115505000000     0.811866500000     0          
C2s      C      0.690450000000     0.190450000000     0.750000000000     0          
Cu1      Cu     0.891940000000     0.000000000000     0.891940000000     0          
O1       O      0.906085000000     0.475480000000     0.871015000000     0          
O2       O      0.921600000000     0.000000000000     0.921600000000     0          
C1       C      0.897795000000     0.465040000000     0.852205000000     0          
C2       C      0.909440000000     0.441890000000     0.840560000000     0          
C3       C      0.898620000000     0.431075000000     0.818925000000     0          
H1       H      0.884495000000     0.438133500000     0.811866500000     0          
C2s      C      0.809550000000     0.190450000000     0.750000000000     0          
Cu1      Cu     0.500000000000     0.391940000000     0.891940000000     0          
O1       O      0.524520000000     0.406085000000     0.871015000000     0          
O2       O      0.500000000000     0.421600000000     0.921600000000     0          
C1       C      0.534960000000     0.397795000000     0.852205000000     0          
C2       C      0.558110000000     0.409440000000     0.840560000000     0          
C3       C      0.568925000000     0.398620000000     0.818925000000     0          
H1       H      0.561866500000     0.384495000000     0.811866500000     0          
C2s      C      0.809550000000     0.309550000000     0.750000000000     0          
Cu1      Cu     0.608060000000     0.000000000000     0.891940000000     0          
O1       O      0.593915000000     0.024520000000     0.871015000000     0          
O2       O      0.578400000000     0.000000000000     0.921600000000     0          
C1       C      0.602205000000     0.034960000000     0.852205000000     0          
C2       C      0.590560000000     0.058110000000     0.840560000000     0          
C3       C      0.601380000000     0.068925000000     0.818925000000     0          
H1       H      0.615505000000     0.061866500000     0.811866500000     0          
C2s      C      0.690450000000     0.309550000000     0.750000000000     0          
Cu1      Cu     0.500000000000     0.391940000000     0.608060000000     0          
O1       O      0.975480000000     0.406085000000     0.628985000000     0          
O2       O      0.500000000000     0.421600000000     0.578400000000     0          
C1       C      0.965040000000     0.397795000000     0.647795000000     0          
C2       C      0.941890000000     0.409440000000     0.659440000000     0          
C3       C      0.931075000000     0.398620000000     0.681075000000     0          
H1       H      0.938133500000     0.384495000000     0.688133500000     0          
Cu1      Cu     0.608060000000     0.000000000000     0.608060000000     0          
O1       O      0.593915000000     0.475480000000     0.628985000000     0          
O2       O      0.578400000000     0.000000000000     0.578400000000     0          
C1       C      0.602205000000     0.465040000000     0.647795000000     0          
C2       C      0.590560000000     0.441890000000     0.659440000000     0          
C3       C      0.601380000000     0.431075000000     0.681075000000     0          
H1       H      0.615505000000     0.438133500000     0.688133500000     0          
Cu1      Cu     0.500000000000     0.108060000000     0.608060000000     0          
O1       O      0.524520000000     0.093915000000     0.628985000000     0          
O2       O      0.500000000000     0.078400000000     0.578400000000     0          
C1       C      0.534960000000     0.102205000000     0.647795000000     0          
C2       C      0.558110000000     0.090560000000     0.659440000000     0          
C3       C      0.568925000000     0.101380000000     0.681075000000     0          
H1       H      0.561866500000     0.115505000000     0.688133500000     0          
Cu1      Cu     0.891940000000     0.000000000000     0.608060000000     0          
O1       O      0.906085000000     0.024520000000     0.628985000000     0          
O2       O      0.921600000000     0.000000000000     0.578400000000     0          
C1       C      0.897795000000     0.034960000000     0.647795000000     0          
C2       C      0.909440000000     0.058110000000     0.659440000000     0          
C3       C      0.898620000000     0.068925000000     0.681075000000     0          
H1       H      0.884495000000     0.061866500000     0.688133500000     0          
O1       O      0.871015000000     0.475480000000     0.593915000000     0          
C1       C      0.852205000000     0.465040000000     0.602205000000     0          
C2       C      0.840560000000     0.441890000000     0.590560000000     0          
C3       C      0.818925000000     0.431075000000     0.601380000000     0          
H1       H      0.811866500000     0.438133500000     0.615505000000     0          
O1       O      0.871015000000     0.024520000000     0.906085000000     0          
C1       C      0.852205000000     0.034960000000     0.897795000000     0          
C2       C      0.840560000000     0.058110000000     0.909440000000     0          
C3       C      0.818925000000     0.068925000000     0.898620000000     0          
H1       H      0.811866500000     0.061866500000     0.884495000000     0          
O1       O      0.975480000000     0.371015000000     0.906085000000     0          
C1       C      0.965040000000     0.352205000000     0.897795000000     0          
C2       C      0.941890000000     0.340560000000     0.909440000000     0          
C3       C      0.931075000000     0.318925000000     0.898620000000     0          
H1       H      0.938133500000     0.311866500000     0.884495000000     0          
O1       O      0.628985000000     0.475480000000     0.906085000000     0          
C1       C      0.647795000000     0.465040000000     0.897795000000     0          
C2       C      0.659440000000     0.441890000000     0.909440000000     0          
C3       C      0.681075000000     0.431075000000     0.898620000000     0          
H1       H      0.688133500000     0.438133500000     0.884495000000     0          
O1       O      0.524520000000     0.128985000000     0.906085000000     0          
C1       C      0.534960000000     0.147795000000     0.897795000000     0          
C2       C      0.558110000000     0.159440000000     0.909440000000     0          
C3       C      0.568925000000     0.181075000000     0.898620000000     0          
H1       H      0.561866500000     0.188133500000     0.884495000000     0          
O1       O      0.628985000000     0.024520000000     0.593915000000     0          
C1       C      0.647795000000     0.034960000000     0.602205000000     0          
C2       C      0.659440000000     0.058110000000     0.590560000000     0          
C3       C      0.681075000000     0.068925000000     0.601380000000     0          
H1       H      0.688133500000     0.061866500000     0.615505000000     0          
O1       O      0.975480000000     0.128985000000     0.593915000000     0          
C1       C      0.965040000000     0.147795000000     0.602205000000     0          
C2       C      0.941890000000     0.159440000000     0.590560000000     0          
C3       C      0.931075000000     0.181075000000     0.601380000000     0          
H1       H      0.938133500000     0.188133500000     0.615505000000     0          
O1       O      0.524520000000     0.371015000000     0.593915000000     0          
C1       C      0.534960000000     0.352205000000     0.602205000000     0          
C2       C      0.558110000000     0.340560000000     0.590560000000     0          
C3       C      0.568925000000     0.318925000000     0.601380000000     0          
H1       H      0.561866500000     0.311866500000     0.615505000000     0          
O1       O      0.906085000000     0.128985000000     0.524520000000     0          
C1       C      0.897795000000     0.147795000000     0.534960000000     0          
C2       C      0.909440000000     0.159440000000     0.558110000000     0          
C3       C      0.898620000000     0.181075000000     0.568925000000     0          
H1       H      0.884495000000     0.188133500000     0.561866500000     0          
O1       O      0.871015000000     0.406085000000     0.524520000000     0          
C1       C      0.852205000000     0.397795000000     0.534960000000     0          
C2       C      0.840560000000     0.409440000000     0.558110000000     0          
C3       C      0.818925000000     0.398620000000     0.568925000000     0          
H1       H      0.811866500000     0.384495000000     0.561866500000     0          
O1       O      0.593915000000     0.371015000000     0.524520000000     0          
C1       C      0.602205000000     0.352205000000     0.534960000000     0          
C2       C      0.590560000000     0.340560000000     0.558110000000     0          
C3       C      0.601380000000     0.318925000000     0.568925000000     0          
H1       H      0.615505000000     0.311866500000     0.561866500000     0          
O1       O      0.628985000000     0.093915000000     0.524520000000     0          
C1       C      0.647795000000     0.102205000000     0.534960000000     0          
C2       C      0.659440000000     0.090560000000     0.558110000000     0          
C3       C      0.681075000000     0.101380000000     0.568925000000     0          
H1       H      0.688133500000     0.115505000000     0.561866500000     0          
O1       O      0.906085000000     0.371015000000     0.975480000000     0          
C1       C      0.897795000000     0.352205000000     0.965040000000     0          
C2       C      0.909440000000     0.340560000000     0.941890000000     0          
C3       C      0.898620000000     0.318925000000     0.931075000000     0          
H1       H      0.884495000000     0.311866500000     0.938133500000     0          
O1       O      0.628985000000     0.406085000000     0.975480000000     0          
C1       C      0.647795000000     0.397795000000     0.965040000000     0          
C2       C      0.659440000000     0.409440000000     0.941890000000     0          
C3       C      0.681075000000     0.398620000000     0.931075000000     0          
H1       H      0.688133500000     0.384495000000     0.938133500000     0          
O1       O      0.593915000000     0.128985000000     0.975480000000     0          
C1       C      0.602205000000     0.147795000000     0.965040000000     0          
C2       C      0.590560000000     0.159440000000     0.941890000000     0          
C3       C      0.601380000000     0.181075000000     0.931075000000     0          
H1       H      0.615505000000     0.188133500000     0.938133500000     0          
O1       O      0.871015000000     0.093915000000     0.975480000000     0          
C1       C      0.852205000000     0.102205000000     0.965040000000     0          
C2       C      0.840560000000     0.090560000000     0.941890000000     0          
C3       C      0.818925000000     0.101380000000     0.931075000000     0          
H1       H      0.811866500000     0.115505000000     0.938133500000     0          
O1       O      0.524520000000     0.406085000000     0.628985000000     0          
C1       C      0.534960000000     0.397795000000     0.647795000000     0          
C2       C      0.558110000000     0.409440000000     0.659440000000     0          
C3       C      0.568925000000     0.398620000000     0.681075000000     0          
H1       H      0.561866500000     0.384495000000     0.688133500000     0          
O1       O      0.593915000000     0.024520000000     0.628985000000     0          
C1       C      0.602205000000     0.034960000000     0.647795000000     0          
C2       C      0.590560000000     0.058110000000     0.659440000000     0          
C3       C      0.601380000000     0.068925000000     0.681075000000     0          
H1       H      0.615505000000     0.061866500000     0.688133500000     0          
O1       O      0.975480000000     0.093915000000     0.628985000000     0          
C1       C      0.965040000000     0.102205000000     0.647795000000     0          
C2       C      0.941890000000     0.090560000000     0.659440000000     0          
C3       C      0.931075000000     0.101380000000     0.681075000000     0          
H1       H      0.938133500000     0.115505000000     0.688133500000     0          
O1       O      0.906085000000     0.475480000000     0.628985000000     0          
C1       C      0.897795000000     0.465040000000     0.647795000000     0          
C2       C      0.909440000000     0.441890000000     0.659440000000     0          
C3       C      0.898620000000     0.431075000000     0.681075000000     0          
H1       H      0.884495000000     0.438133500000     0.688133500000     0          
O1       O      0.524520000000     0.093915000000     0.871015000000     0          
C1       C      0.534960000000     0.102205000000     0.852205000000     0          
C2       C      0.558110000000     0.090560000000     0.840560000000     0          
C3       C      0.568925000000     0.101380000000     0.818925000000     0          
H1       H      0.561866500000     0.115505000000     0.811866500000     0          
O1       O      0.906085000000     0.024520000000     0.871015000000     0          
C1       C      0.897795000000     0.034960000000     0.852205000000     0          
C2       C      0.909440000000     0.058110000000     0.840560000000     0          
C3       C      0.898620000000     0.068925000000     0.818925000000     0          
H1       H      0.884495000000     0.061866500000     0.811866500000     0          
O1       O      0.975480000000     0.406085000000     0.871015000000     0          
C1       C      0.965040000000     0.397795000000     0.852205000000     0          
C2       C      0.941890000000     0.409440000000     0.840560000000     0          
C3       C      0.931075000000     0.398620000000     0.818925000000     0          
H1       H      0.938133500000     0.384495000000     0.811866500000     0          
O1       O      0.593915000000     0.475480000000     0.871015000000     0          
C1       C      0.602205000000     0.465040000000     0.852205000000     0          
C2       C      0.590560000000     0.441890000000     0.840560000000     0          
C3       C      0.601380000000     0.431075000000     0.818925000000     0          
H1       H      0.615505000000     0.438133500000     0.811866500000     0          
O1       O      0.628985000000     0.024520000000     0.906085000000     0          
C1       C      0.647795000000     0.034960000000     0.897795000000     0          
C2       C      0.659440000000     0.058110000000     0.909440000000     0          
C3       C      0.681075000000     0.068925000000     0.898620000000     0          
H1       H      0.688133500000     0.061866500000     0.884495000000     0          
O1       O      0.628985000000     0.475480000000     0.593915000000     0          
C1       C      0.647795000000     0.465040000000     0.602205000000     0          
C2       C      0.659440000000     0.441890000000     0.590560000000     0          
C3       C      0.681075000000     0.431075000000     0.601380000000     0          
H1       H      0.688133500000     0.438133500000     0.615505000000     0          
O1       O      0.524520000000     0.128985000000     0.593915000000     0          
C1       C      0.534960000000     0.147795000000     0.602205000000     0          
C2       C      0.558110000000     0.159440000000     0.590560000000     0          
C3       C      0.568925000000     0.181075000000     0.601380000000     0          
H1       H      0.561866500000     0.188133500000     0.615505000000     0          
O1       O      0.871015000000     0.024520000000     0.593915000000     0          
C1       C      0.852205000000     0.034960000000     0.602205000000     0          
C2       C      0.840560000000     0.058110000000     0.590560000000     0          
C3       C      0.818925000000     0.068925000000     0.601380000000     0          
H1       H      0.811866500000     0.061866500000     0.615505000000     0          
O1       O      0.975480000000     0.371015000000     0.593915000000     0          
C1       C      0.965040000000     0.352205000000     0.602205000000     0          
C2       C      0.941890000000     0.340560000000     0.590560000000     0          
C3       C      0.931075000000     0.318925000000     0.601380000000     0          
H1       H      0.938133500000     0.311866500000     0.615505000000     0          
O1       O      0.871015000000     0.475480000000     0.906085000000     0          
C1       C      0.852205000000     0.465040000000     0.897795000000     0          
C2       C      0.840560000000     0.441890000000     0.909440000000     0          
C3       C      0.818925000000     0.431075000000     0.898620000000     0          
H1       H      0.811866500000     0.438133500000     0.884495000000     0          
O1       O      0.524520000000     0.371015000000     0.906085000000     0          
C1       C      0.534960000000     0.352205000000     0.897795000000     0          
C2       C      0.558110000000     0.340560000000     0.909440000000     0          
C3       C      0.568925000000     0.318925000000     0.898620000000     0          
H1       H      0.561866500000     0.311866500000     0.884495000000     0          
O1       O      0.975480000000     0.128985000000     0.906085000000     0          
C1       C      0.965040000000     0.147795000000     0.897795000000     0          
C2       C      0.941890000000     0.159440000000     0.909440000000     0          
C3       C      0.931075000000     0.181075000000     0.898620000000     0          
H1       H      0.938133500000     0.188133500000     0.884495000000     0          
Cu1      Cu     0.608060000000     0.141940000000     0.750000000000     0          
O1       O      0.593915000000     0.121015000000     0.725480000000     0          
O2       O      0.578400000000     0.171600000000     0.750000000000     0          
C1       C      0.602205000000     0.102205000000     0.715040000000     0          
C2       C      0.590560000000     0.090560000000     0.691890000000     0          
C1s      C      0.579350000000     0.329350000000     0.829350000000     0          
C2s      C      0.690450000000     0.000000000000     0.940450000000     0          
Cu1      Cu     0.608060000000     0.358060000000     0.750000000000     0          
O1       O      0.628985000000     0.343915000000     0.725480000000     0          
O2       O      0.578400000000     0.328400000000     0.750000000000     0          
C1       C      0.647795000000     0.352205000000     0.715040000000     0          
C2       C      0.659440000000     0.340560000000     0.691890000000     0          
C3       C      0.681075000000     0.351380000000     0.681075000000     0          
H1       H      0.688133500000     0.365505000000     0.688133500000     0          
C1s      C      0.920650000000     0.329350000000     0.829350000000     0          
C2s      C      0.750000000000     0.440450000000     0.940450000000     0          
Cu1      Cu     0.891940000000     0.358060000000     0.750000000000     0          
O1       O      0.906085000000     0.378985000000     0.725480000000     0          
O2       O      0.921600000000     0.328400000000     0.750000000000     0          
C1       C      0.897795000000     0.397795000000     0.715040000000     0          
C2       C      0.909440000000     0.409440000000     0.691890000000     0          
C1s      C      0.920650000000     0.170650000000     0.829350000000     0          
C2s      C      0.809550000000     0.000000000000     0.940450000000     0          
Cu1      Cu     0.891940000000     0.141940000000     0.750000000000     0          
O1       O      0.871015000000     0.156085000000     0.725480000000     0          
O2       O      0.921600000000     0.171600000000     0.750000000000     0          
C1       C      0.852205000000     0.147795000000     0.715040000000     0          
C2       C      0.840560000000     0.159440000000     0.691890000000     0          
C3       C      0.818925000000     0.148620000000     0.681075000000     0          
H1       H      0.811866500000     0.134495000000     0.688133500000     0          
C1s      C      0.579350000000     0.170650000000     0.829350000000     0          
C2s      C      0.750000000000     0.059550000000     0.940450000000     0          
O1       O      0.593915000000     0.378985000000     0.774520000000     0          
C1       C      0.602205000000     0.397795000000     0.784960000000     0          
C2       C      0.590560000000     0.409440000000     0.808110000000     0          
C1s      C      0.579350000000     0.170650000000     0.670650000000     0          
C2s      C      0.690450000000     0.000000000000     0.559550000000     0          
O1       O      0.871015000000     0.343915000000     0.774520000000     0          
C1       C      0.852205000000     0.352205000000     0.784960000000     0          
C2       C      0.840560000000     0.340560000000     0.808110000000     0          
C3       C      0.818925000000     0.351380000000     0.818925000000     0          
H1       H      0.811866500000     0.365505000000     0.811866500000     0          
C1s      C      0.579350000000     0.329350000000     0.670650000000     0          
C2s      C      0.750000000000     0.440450000000     0.559550000000     0          
O1       O      0.906085000000     0.121015000000     0.774520000000     0          
C1       C      0.897795000000     0.102205000000     0.784960000000     0          
C2       C      0.909440000000     0.090560000000     0.808110000000     0          
C1s      C      0.920650000000     0.329350000000     0.670650000000     0          
C2s      C      0.809550000000     0.000000000000     0.559550000000     0          
O1       O      0.628985000000     0.156085000000     0.774520000000     0          
C1       C      0.647795000000     0.147795000000     0.784960000000     0          
C2       C      0.659440000000     0.159440000000     0.808110000000     0          
C3       C      0.681075000000     0.148620000000     0.818925000000     0          
H1       H      0.688133500000     0.134495000000     0.811866500000     0          
C1s      C      0.920650000000     0.170650000000     0.670650000000     0          
C2s      C      0.750000000000     0.059550000000     0.559550000000     0          
Cu1      Cu     0.500000000000     0.358060000000     0.641940000000     0          
O1       O      0.975480000000     0.343915000000     0.621015000000     0          
O2       O      0.500000000000     0.328400000000     0.671600000000     0          
C3       C      0.931075000000     0.351380000000     0.568925000000     0          
H1       H      0.938133500000     0.365505000000     0.561866500000     0          
C2s      C      0.690450000000     0.440450000000     0.500000000000     0          
Cu1      Cu     0.891940000000     0.250000000000     0.641940000000     0          
O1       O      0.906085000000     0.225480000000     0.621015000000     0          
O2       O      0.921600000000     0.250000000000     0.671600000000     0          
C1       C      0.897795000000     0.215040000000     0.602205000000     0          
C2       C      0.909440000000     0.191890000000     0.590560000000     0          
C2s      C      0.809550000000     0.440450000000     0.500000000000     0          
Cu1      Cu     0.500000000000     0.141940000000     0.641940000000     0          
O1       O      0.524520000000     0.156085000000     0.621015000000     0          
O2       O      0.500000000000     0.171600000000     0.671600000000     0          
C3       C      0.568925000000     0.148620000000     0.568925000000     0          
H1       H      0.561866500000     0.134495000000     0.561866500000     0          
C2s      C      0.809550000000     0.059550000000     0.500000000000     0          
Cu1      Cu     0.608060000000     0.250000000000     0.641940000000     0          
O1       O      0.593915000000     0.274520000000     0.621015000000     0          
O2       O      0.578400000000     0.250000000000     0.671600000000     0          
C1       C      0.602205000000     0.284960000000     0.602205000000     0          
C2       C      0.590560000000     0.308110000000     0.590560000000     0          
C2s      C      0.690450000000     0.059550000000     0.500000000000     0          
Cu1      Cu     0.500000000000     0.141940000000     0.858060000000     0          
O1       O      0.975480000000     0.156085000000     0.878985000000     0          
O2       O      0.500000000000     0.171600000000     0.828400000000     0          
C3       C      0.931075000000     0.148620000000     0.931075000000     0          
H1       H      0.938133500000     0.134495000000     0.938133500000     0          
Cu1      Cu     0.608060000000     0.250000000000     0.858060000000     0          
O1       O      0.593915000000     0.225480000000     0.878985000000     0          
O2       O      0.578400000000     0.250000000000     0.828400000000     0          
C1       C      0.602205000000     0.215040000000     0.897795000000     0          
C2       C      0.590560000000     0.191890000000     0.909440000000     0          
Cu1      Cu     0.500000000000     0.358060000000     0.858060000000     0          
O1       O      0.524520000000     0.343915000000     0.878985000000     0          
O2       O      0.500000000000     0.328400000000     0.828400000000     0          
C3       C      0.568925000000     0.351380000000     0.931075000000     0          
H1       H      0.561866500000     0.365505000000     0.938133500000     0          
Cu1      Cu     0.891940000000     0.250000000000     0.858060000000     0          
O1       O      0.906085000000     0.274520000000     0.878985000000     0          
O2       O      0.921600000000     0.250000000000     0.828400000000     0          
C1       C      0.897795000000     0.284960000000     0.897795000000     0          
C2       C      0.909440000000     0.308110000000     0.909440000000     0          
O1       O      0.871015000000     0.225480000000     0.843915000000     0          
C1       C      0.852205000000     0.215040000000     0.852205000000     0          
C2       C      0.840560000000     0.191890000000     0.840560000000     0          
C3       C      0.818925000000     0.181075000000     0.851380000000     0          
H1       H      0.811866500000     0.188133500000     0.865505000000     0          
O1       O      0.871015000000     0.274520000000     0.656085000000     0          
C1       C      0.852205000000     0.284960000000     0.647795000000     0          
C2       C      0.840560000000     0.308110000000     0.659440000000     0          
C3       C      0.818925000000     0.318925000000     0.648620000000     0          
H1       H      0.811866500000     0.311866500000     0.634495000000     0          
O1       O      0.975480000000     0.121015000000     0.656085000000     0          
C3       C      0.931075000000     0.068925000000     0.648620000000     0          
H1       H      0.938133500000     0.061866500000     0.634495000000     0          
O1       O      0.628985000000     0.225480000000     0.656085000000     0          
C1       C      0.647795000000     0.215040000000     0.647795000000     0          
C2       C      0.659440000000     0.191890000000     0.659440000000     0          
C3       C      0.681075000000     0.181075000000     0.648620000000     0          
H1       H      0.688133500000     0.188133500000     0.634495000000     0          
O1       O      0.524520000000     0.378985000000     0.656085000000     0          
C3       C      0.568925000000     0.431075000000     0.648620000000     0          
H1       H      0.561866500000     0.438133500000     0.634495000000     0          
O1       O      0.628985000000     0.274520000000     0.843915000000     0          
C1       C      0.647795000000     0.284960000000     0.852205000000     0          
C2       C      0.659440000000     0.308110000000     0.840560000000     0          
C3       C      0.681075000000     0.318925000000     0.851380000000     0          
H1       H      0.688133500000     0.311866500000     0.865505000000     0          
O1       O      0.975480000000     0.378985000000     0.843915000000     0          
C3       C      0.931075000000     0.431075000000     0.851380000000     0          
H1       H      0.938133500000     0.438133500000     0.865505000000     0          
O1       O      0.524520000000     0.121015000000     0.843915000000     0          
C3       C      0.568925000000     0.068925000000     0.851380000000     0          
H1       H      0.561866500000     0.061866500000     0.865505000000     0          
O1       O      0.906085000000     0.378985000000     0.774520000000     0          
C1       C      0.897795000000     0.397795000000     0.784960000000     0          
C2       C      0.909440000000     0.409440000000     0.808110000000     0          
O1       O      0.871015000000     0.156085000000     0.774520000000     0          
C1       C      0.852205000000     0.147795000000     0.784960000000     0          
C2       C      0.840560000000     0.159440000000     0.808110000000     0          
C3       C      0.818925000000     0.148620000000     0.818925000000     0          
H1       H      0.811866500000     0.134495000000     0.811866500000     0          
O1       O      0.593915000000     0.121015000000     0.774520000000     0          
C1       C      0.602205000000     0.102205000000     0.784960000000     0          
C2       C      0.590560000000     0.090560000000     0.808110000000     0          
O1       O      0.628985000000     0.343915000000     0.774520000000     0          
C1       C      0.647795000000     0.352205000000     0.784960000000     0          
C2       C      0.659440000000     0.340560000000     0.808110000000     0          
C3       C      0.681075000000     0.351380000000     0.818925000000     0          
H1       H      0.688133500000     0.365505000000     0.811866500000     0          
O1       O      0.906085000000     0.121015000000     0.725480000000     0          
C1       C      0.897795000000     0.102205000000     0.715040000000     0          
C2       C      0.909440000000     0.090560000000     0.691890000000     0          
O1       O      0.628985000000     0.156085000000     0.725480000000     0          
C1       C      0.647795000000     0.147795000000     0.715040000000     0          
C2       C      0.659440000000     0.159440000000     0.691890000000     0          
C3       C      0.681075000000     0.148620000000     0.681075000000     0          
H1       H      0.688133500000     0.134495000000     0.688133500000     0          
O1       O      0.593915000000     0.378985000000     0.725480000000     0          
C1       C      0.602205000000     0.397795000000     0.715040000000     0          
C2       C      0.590560000000     0.409440000000     0.691890000000     0          
O1       O      0.871015000000     0.343915000000     0.725480000000     0          
C1       C      0.852205000000     0.352205000000     0.715040000000     0          
C2       C      0.840560000000     0.340560000000     0.691890000000     0          
C3       C      0.818925000000     0.351380000000     0.681075000000     0          
H1       H      0.811866500000     0.365505000000     0.688133500000     0          
O1       O      0.524520000000     0.156085000000     0.878985000000     0          
C3       C      0.568925000000     0.148620000000     0.931075000000     0          
H1       H      0.561866500000     0.134495000000     0.938133500000     0          
O1       O      0.593915000000     0.274520000000     0.878985000000     0          
C1       C      0.602205000000     0.284960000000     0.897795000000     0          
C2       C      0.590560000000     0.308110000000     0.909440000000     0          
O1       O      0.975480000000     0.343915000000     0.878985000000     0          
C3       C      0.931075000000     0.351380000000     0.931075000000     0          
H1       H      0.938133500000     0.365505000000     0.938133500000     0          
O1       O      0.906085000000     0.225480000000     0.878985000000     0          
C1       C      0.897795000000     0.215040000000     0.897795000000     0          
C2       C      0.909440000000     0.191890000000     0.909440000000     0          
O1       O      0.524520000000     0.343915000000     0.621015000000     0          
C3       C      0.568925000000     0.351380000000     0.568925000000     0          
H1       H      0.561866500000     0.365505000000     0.561866500000     0          
O1       O      0.906085000000     0.274520000000     0.621015000000     0          
C1       C      0.897795000000     0.284960000000     0.602205000000     0          
C2       C      0.909440000000     0.308110000000     0.590560000000     0          
O1       O      0.975480000000     0.156085000000     0.621015000000     0          
C3       C      0.931075000000     0.148620000000     0.568925000000     0          
H1       H      0.938133500000     0.134495000000     0.561866500000     0          
O1       O      0.593915000000     0.225480000000     0.621015000000     0          
C1       C      0.602205000000     0.215040000000     0.602205000000     0          
C2       C      0.590560000000     0.191890000000     0.590560000000     0          
O1       O      0.628985000000     0.274520000000     0.656085000000     0          
C1       C      0.647795000000     0.284960000000     0.647795000000     0          
C2       C      0.659440000000     0.308110000000     0.659440000000     0          
C3       C      0.681075000000     0.318925000000     0.648620000000     0          
H1       H      0.688133500000     0.311866500000     0.634495000000     0          
O1       O      0.628985000000     0.225480000000     0.843915000000     0          
C1       C      0.647795000000     0.215040000000     0.852205000000     0          
C2       C      0.659440000000     0.191890000000     0.840560000000     0          
C3       C      0.681075000000     0.181075000000     0.851380000000     0          
H1       H      0.688133500000     0.188133500000     0.865505000000     0          
O1       O      0.524520000000     0.378985000000     0.843915000000     0          
C3       C      0.568925000000     0.431075000000     0.851380000000     0          
H1       H      0.561866500000     0.438133500000     0.865505000000     0          
O1       O      0.871015000000     0.274520000000     0.843915000000     0          
C1       C      0.852205000000     0.284960000000     0.852205000000     0          
C2       C      0.840560000000     0.308110000000     0.840560000000     0          
C3       C      0.818925000000     0.318925000000     0.851380000000     0          
H1       H      0.811866500000     0.311866500000     0.865505000000     0          
O1       O      0.975480000000     0.121015000000     0.843915000000     0          
C3       C      0.931075000000     0.068925000000     0.851380000000     0          
H1       H      0.938133500000     0.061866500000     0.865505000000     0          
O1       O      0.871015000000     0.225480000000     0.656085000000     0          
C1       C      0.852205000000     0.215040000000     0.647795000000     0          
C2       C      0.840560000000     0.191890000000     0.659440000000     0          
C3       C      0.818925000000     0.181075000000     0.648620000000     0          
H1       H      0.811866500000     0.188133500000     0.634495000000     0          
O1       O      0.524520000000     0.121015000000     0.656085000000     0          
C3       C      0.568925000000     0.068925000000     0.648620000000     0          
H1       H      0.561866500000     0.061866500000     0.634495000000     0          
O1       O      0.975480000000     0.378985000000     0.656085000000     0          
C3       C      0.931075000000     0.431075000000     0.648620000000     0          
H1       H      0.938133500000     0.438133500000     0.634495000000     0          
Cu1      Cu     0.858060000000     0.391940000000     0.750000000000     0          
O1       O      0.843915000000     0.371015000000     0.725480000000     0          
O2       O      0.828400000000     0.421600000000     0.750000000000     0          
C3       C      0.851380000000     0.318925000000     0.681075000000     0          
H1       H      0.865505000000     0.311866500000     0.688133500000     0          
C1s      C      0.829350000000     0.079350000000     0.829350000000     0          
C2s      C      0.940450000000     0.250000000000     0.940450000000     0          
Cu1      Cu     0.858060000000     0.108060000000     0.750000000000     0          
O1       O      0.878985000000     0.093915000000     0.725480000000     0          
O2       O      0.828400000000     0.078400000000     0.750000000000     0          
C1s      C      0.670650000000     0.079350000000     0.829350000000     0          
C2s      C      0.500000000000     0.190450000000     0.940450000000     0          
Cu1      Cu     0.641940000000     0.108060000000     0.750000000000     0          
O1       O      0.656085000000     0.128985000000     0.725480000000     0          
O2       O      0.671600000000     0.078400000000     0.750000000000     0          
C3       C      0.648620000000     0.181075000000     0.681075000000     0          
H1       H      0.634495000000     0.188133500000     0.688133500000     0          
C1s      C      0.670650000000     0.420650000000     0.829350000000     0          
C2s      C      0.559550000000     0.250000000000     0.940450000000     0          
Cu1      Cu     0.641940000000     0.391940000000     0.750000000000     0          
O1       O      0.621015000000     0.406085000000     0.725480000000     0          
O2       O      0.671600000000     0.421600000000     0.750000000000     0          
C1s      C      0.829350000000     0.420650000000     0.829350000000     0          
C2s      C      0.500000000000     0.309550000000     0.940450000000     0          
O1       O      0.843915000000     0.128985000000     0.774520000000     0          
C3       C      0.851380000000     0.181075000000     0.818925000000     0          
H1       H      0.865505000000     0.188133500000     0.811866500000     0          
C1s      C      0.829350000000     0.420650000000     0.670650000000     0          
C2s      C      0.940450000000     0.250000000000     0.559550000000     0          
O1       O      0.621015000000     0.093915000000     0.774520000000     0          
C1s      C      0.829350000000     0.079350000000     0.670650000000     0          
C2s      C      0.500000000000     0.190450000000     0.559550000000     0          
O1       O      0.656085000000     0.371015000000     0.774520000000     0          
C3       C      0.648620000000     0.318925000000     0.818925000000     0          
H1       H      0.634495000000     0.311866500000     0.811866500000     0          
C1s      C      0.670650000000     0.079350000000     0.670650000000     0          
C2s      C      0.559550000000     0.250000000000     0.559550000000     0          
O1       O      0.878985000000     0.406085000000     0.774520000000     0          
C1s      C      0.670650000000     0.420650000000     0.670650000000     0          
C2s      C      0.500000000000     0.309550000000     0.559550000000     0          
Cu1      Cu     0.750000000000     0.108060000000     0.641940000000     0          
O1       O      0.725480000000     0.093915000000     0.621015000000     0          
O2       O      0.750000000000     0.078400000000     0.671600000000     0          
C1       C      0.715040000000     0.102205000000     0.602205000000     0          
C2       C      0.691890000000     0.090560000000     0.590560000000     0          
C2s      C      0.940450000000     0.190450000000     0.500000000000     0          
Cu1      Cu     0.641940000000     0.000000000000     0.641940000000     0          
O1       O      0.656085000000     0.475480000000     0.621015000000     0          
O2       O      0.671600000000     0.000000000000     0.671600000000     0          
C3       C      0.648620000000     0.431075000000     0.568925000000     0          
H1       H      0.634495000000     0.438133500000     0.561866500000     0          
C2s      C      0.559550000000     0.190450000000     0.500000000000     0          
Cu1      Cu     0.750000000000     0.391940000000     0.641940000000     0          
O1       O      0.774520000000     0.406085000000     0.621015000000     0          
O2       O      0.750000000000     0.421600000000     0.671600000000     0          
C1       C      0.784960000000     0.397795000000     0.602205000000     0          
C2       C      0.808110000000     0.409440000000     0.590560000000     0          
C2s      C      0.559550000000     0.309550000000     0.500000000000     0          
Cu1      Cu     0.858060000000     0.000000000000     0.641940000000     0          
O1       O      0.843915000000     0.024520000000     0.621015000000     0          
O2       O      0.828400000000     0.000000000000     0.671600000000     0          
C3       C      0.851380000000     0.068925000000     0.568925000000     0          
H1       H      0.865505000000     0.061866500000     0.561866500000     0          
C2s      C      0.940450000000     0.309550000000     0.500000000000     0          
Cu1      Cu     0.750000000000     0.391940000000     0.858060000000     0          
O1       O      0.725480000000     0.406085000000     0.878985000000     0          
O2       O      0.750000000000     0.421600000000     0.828400000000     0          
C1       C      0.715040000000     0.397795000000     0.897795000000     0          
C2       C      0.691890000000     0.409440000000     0.909440000000     0          
Cu1      Cu     0.858060000000     0.000000000000     0.858060000000     0          
O1       O      0.843915000000     0.475480000000     0.878985000000     0          
O2       O      0.828400000000     0.000000000000     0.828400000000     0          
C3       C      0.851380000000     0.431075000000     0.931075000000     0          
H1       H      0.865505000000     0.438133500000     0.938133500000     0          
Cu1      Cu     0.750000000000     0.108060000000     0.858060000000     0          
O1       O      0.774520000000     0.093915000000     0.878985000000     0          
O2       O      0.750000000000     0.078400000000     0.828400000000     0          
C1       C      0.784960000000     0.102205000000     0.897795000000     0          
C2       C      0.808110000000     0.090560000000     0.909440000000     0          
Cu1      Cu     0.641940000000     0.000000000000     0.858060000000     0          
O1       O      0.656085000000     0.024520000000     0.878985000000     0          
O2       O      0.671600000000     0.000000000000     0.828400000000     0          
C3       C      0.648620000000     0.068925000000     0.931075000000     0          
H1       H      0.634495000000     0.061866500000     0.938133500000     0          
O1       O      0.621015000000     0.475480000000     0.843915000000     0          
O1       O      0.621015000000     0.024520000000     0.656085000000     0          
O1       O      0.725480000000     0.371015000000     0.656085000000     0          
C1       C      0.715040000000     0.352205000000     0.647795000000     0          
C2       C      0.691890000000     0.340560000000     0.659440000000     0          
O1       O      0.878985000000     0.475480000000     0.656085000000     0          
O1       O      0.774520000000     0.128985000000     0.656085000000     0          
C1       C      0.784960000000     0.147795000000     0.647795000000     0          
C2       C      0.808110000000     0.159440000000     0.659440000000     0          
O1       O      0.878985000000     0.024520000000     0.843915000000     0          
O1       O      0.725480000000     0.128985000000     0.843915000000     0          
C1       C      0.715040000000     0.147795000000     0.852205000000     0          
C2       C      0.691890000000     0.159440000000     0.840560000000     0          
O1       O      0.774520000000     0.371015000000     0.843915000000     0          
C1       C      0.784960000000     0.352205000000     0.852205000000     0          
C2       C      0.808110000000     0.340560000000     0.840560000000     0          
O1       O      0.656085000000     0.128985000000     0.774520000000     0          
C3       C      0.648620000000     0.181075000000     0.818925000000     0          
H1       H      0.634495000000     0.188133500000     0.811866500000     0          
O1       O      0.621015000000     0.406085000000     0.774520000000     0          
O1       O      0.843915000000     0.371015000000     0.774520000000     0          
C3       C      0.851380000000     0.318925000000     0.818925000000     0          
H1       H      0.865505000000     0.311866500000     0.811866500000     0          
O1       O      0.878985000000     0.093915000000     0.774520000000     0          
O1       O      0.656085000000     0.371015000000     0.725480000000     0          
C3       C      0.648620000000     0.318925000000     0.681075000000     0          
H1       H      0.634495000000     0.311866500000     0.688133500000     0          
O1       O      0.878985000000     0.406085000000     0.725480000000     0          
O1       O      0.843915000000     0.128985000000     0.725480000000     0          
C3       C      0.851380000000     0.181075000000     0.681075000000     0          
H1       H      0.865505000000     0.188133500000     0.688133500000     0          
O1       O      0.621015000000     0.093915000000     0.725480000000     0          
O1       O      0.774520000000     0.406085000000     0.878985000000     0          
C1       C      0.784960000000     0.397795000000     0.897795000000     0          
C2       C      0.808110000000     0.409440000000     0.909440000000     0          
O1       O      0.843915000000     0.024520000000     0.878985000000     0          
C3       C      0.851380000000     0.068925000000     0.931075000000     0          
H1       H      0.865505000000     0.061866500000     0.938133500000     0          
O1       O      0.725480000000     0.093915000000     0.878985000000     0          
C1       C      0.715040000000     0.102205000000     0.897795000000     0          
C2       C      0.691890000000     0.090560000000     0.909440000000     0          
O1       O      0.656085000000     0.475480000000     0.878985000000     0          
C3       C      0.648620000000     0.431075000000     0.931075000000     0          
H1       H      0.634495000000     0.438133500000     0.938133500000     0          
O1       O      0.774520000000     0.093915000000     0.621015000000     0          
C1       C      0.784960000000     0.102205000000     0.602205000000     0          
C2       C      0.808110000000     0.090560000000     0.590560000000     0          
O1       O      0.656085000000     0.024520000000     0.621015000000     0          
C3       C      0.648620000000     0.068925000000     0.568925000000     0          
H1       H      0.634495000000     0.061866500000     0.561866500000     0          
O1       O      0.725480000000     0.406085000000     0.621015000000     0          
C1       C      0.715040000000     0.397795000000     0.602205000000     0          
C2       C      0.691890000000     0.409440000000     0.590560000000     0          
O1       O      0.843915000000     0.475480000000     0.621015000000     0          
C3       C      0.851380000000     0.431075000000     0.568925000000     0          
H1       H      0.865505000000     0.438133500000     0.561866500000     0          
O1       O      0.878985000000     0.024520000000     0.656085000000     0          
O1       O      0.878985000000     0.475480000000     0.843915000000     0          
O1       O      0.774520000000     0.128985000000     0.843915000000     0          
C1       C      0.784960000000     0.147795000000     0.852205000000     0          
C2       C      0.808110000000     0.159440000000     0.840560000000     0          
O1       O      0.621015000000     0.024520000000     0.843915000000     0          
O1       O      0.725480000000     0.371015000000     0.843915000000     0          
C1       C      0.715040000000     0.352205000000     0.852205000000     0          
C2       C      0.691890000000     0.340560000000     0.840560000000     0          
O1       O      0.621015000000     0.475480000000     0.656085000000     0          
O1       O      0.774520000000     0.371015000000     0.656085000000     0          
C1       C      0.784960000000     0.352205000000     0.647795000000     0          
C2       C      0.808110000000     0.340560000000     0.659440000000     0          
O1       O      0.725480000000     0.128985000000     0.656085000000     0          
C1       C      0.715040000000     0.147795000000     0.647795000000     0          
C2       C      0.691890000000     0.159440000000     0.659440000000     0          
Cu1      Cu     0.858060000000     0.141940000000     0.500000000000     0          
O1       O      0.843915000000     0.121015000000     0.975480000000     0          
O2       O      0.828400000000     0.171600000000     0.500000000000     0          
C1s      C      0.829350000000     0.329350000000     0.579350000000     0          
C2s      C      0.940450000000     0.000000000000     0.690450000000     0          
Cu1      Cu     0.858060000000     0.358060000000     0.500000000000     0          
O1       O      0.878985000000     0.343915000000     0.975480000000     0          
O2       O      0.828400000000     0.328400000000     0.500000000000     0          
C1s      C      0.670650000000     0.329350000000     0.579350000000     0          
C2s      C      0.500000000000     0.440450000000     0.690450000000     0          
Cu1      Cu     0.641940000000     0.358060000000     0.500000000000     0          
O1       O      0.656085000000     0.378985000000     0.975480000000     0          
O2       O      0.671600000000     0.328400000000     0.500000000000     0          
C1s      C      0.670650000000     0.170650000000     0.579350000000     0          
C2s      C      0.559550000000     0.000000000000     0.690450000000     0          
Cu1      Cu     0.641940000000     0.141940000000     0.500000000000     0          
O1       O      0.621015000000     0.156085000000     0.975480000000     0          
O2       O      0.671600000000     0.171600000000     0.500000000000     0          
C1s      C      0.829350000000     0.170650000000     0.579350000000     0          
C2s      C      0.500000000000     0.059550000000     0.690450000000     0          
O1       O      0.843915000000     0.378985000000     0.524520000000     0          
C1s      C      0.829350000000     0.170650000000     0.920650000000     0          
C2s      C      0.940450000000     0.000000000000     0.809550000000     0          
O1       O      0.621015000000     0.343915000000     0.524520000000     0          
C1s      C      0.829350000000     0.329350000000     0.920650000000     0          
C2s      C      0.500000000000     0.440450000000     0.809550000000     0          
O1       O      0.656085000000     0.121015000000     0.524520000000     0          
C1s      C      0.670650000000     0.329350000000     0.920650000000     0          
C2s      C      0.559550000000     0.000000000000     0.809550000000     0          
O1       O      0.878985000000     0.156085000000     0.524520000000     0          
C1s      C      0.670650000000     0.170650000000     0.920650000000     0          
C2s      C      0.500000000000     0.059550000000     0.809550000000     0          
Cu1      Cu     0.750000000000     0.358060000000     0.891940000000     0          
O1       O      0.725480000000     0.343915000000     0.871015000000     0          
O2       O      0.750000000000     0.328400000000     0.921600000000     0          
C2s      C      0.940450000000     0.440450000000     0.750000000000     0          
Cu1      Cu     0.641940000000     0.250000000000     0.891940000000     0          
O1       O      0.656085000000     0.225480000000     0.871015000000     0          
O2       O      0.671600000000     0.250000000000     0.921600000000     0          
C2s      C      0.559550000000     0.440450000000     0.750000000000     0          
Cu1      Cu     0.750000000000     0.141940000000     0.891940000000     0          
O1       O      0.774520000000     0.156085000000     0.871015000000     0          
O2       O      0.750000000000     0.171600000000     0.921600000000     0          
C2s      C      0.559550000000     0.059550000000     0.750000000000     0          
Cu1      Cu     0.858060000000     0.250000000000     0.891940000000     0          
O1       O      0.843915000000     0.274520000000     0.871015000000     0          
O2       O      0.828400000000     0.250000000000     0.921600000000     0          
C2s      C      0.940450000000     0.059550000000     0.750000000000     0          
Cu1      Cu     0.750000000000     0.141940000000     0.608060000000     0          
O1       O      0.725480000000     0.156085000000     0.628985000000     0          
O2       O      0.750000000000     0.171600000000     0.578400000000     0          
Cu1      Cu     0.858060000000     0.250000000000     0.608060000000     0          
O1       O      0.843915000000     0.225480000000     0.628985000000     0          
O2       O      0.828400000000     0.250000000000     0.578400000000     0          
Cu1      Cu     0.750000000000     0.358060000000     0.608060000000     0          
O1       O      0.774520000000     0.343915000000     0.628985000000     0          
O2       O      0.750000000000     0.328400000000     0.578400000000     0          
Cu1      Cu     0.641940000000     0.250000000000     0.608060000000     0          
O1       O      0.656085000000     0.274520000000     0.628985000000     0          
O2       O      0.671600000000     0.250000000000     0.578400000000     0          
O1       O      0.621015000000     0.225480000000     0.593915000000     0          
O1       O      0.621015000000     0.274520000000     0.906085000000     0          
O1       O      0.725480000000     0.121015000000     0.906085000000     0          
O1       O      0.878985000000     0.225480000000     0.906085000000     0          
O1       O      0.774520000000     0.378985000000     0.906085000000     0          
O1       O      0.878985000000     0.274520000000     0.593915000000     0          
O1       O      0.725480000000     0.378985000000     0.593915000000     0          
O1       O      0.774520000000     0.121015000000     0.593915000000     0          
O1       O      0.656085000000     0.378985000000     0.524520000000     0          
O1       O      0.621015000000     0.156085000000     0.524520000000     0          
O1       O      0.843915000000     0.121015000000     0.524520000000     0          
O1       O      0.878985000000     0.343915000000     0.524520000000     0          
O1       O      0.656085000000     0.121015000000     0.975480000000     0          
O1       O      0.878985000000     0.156085000000     0.975480000000     0          
O1       O      0.843915000000     0.378985000000     0.975480000000     0          
O1       O      0.621015000000     0.343915000000     0.975480000000     0          
O1       O      0.774520000000     0.156085000000     0.628985000000     0          
O1       O      0.843915000000     0.274520000000     0.628985000000     0          
O1       O      0.725480000000     0.343915000000     0.628985000000     0          
O1       O      0.656085000000     0.225480000000     0.628985000000     0          
O1       O      0.774520000000     0.343915000000     0.871015000000     0          
O1       O      0.656085000000     0.274520000000     0.871015000000     0          
O1       O      0.725480000000     0.156085000000     0.871015000000     0          
O1       O      0.843915000000     0.225480000000     0.871015000000     0          
O1       O      0.878985000000     0.274520000000     0.906085000000     0          
O1       O      0.878985000000     0.225480000000     0.593915000000     0          
O1       O      0.774520000000     0.378985000000     0.593915000000     0          
O1       O      0.621015000000     0.274520000000     0.593915000000     0          
O1       O      0.725480000000     0.121015000000     0.593915000000     0          
O1       O      0.621015000000     0.225480000000     0.906085000000     0          
O1       O      0.774520000000     0.121015000000     0.906085000000     0          
O1       O      0.725480000000     0.378985000000     0.906085000000     0          
Cu1      Cu     0.608060000000     0.891940000000     0.000000000000     0          
O1       O      0.593915000000     0.871015000000     0.475480000000     0          
O2       O      0.578400000000     0.921600000000     0.000000000000     0          
C1       C      0.602205000000     0.852205000000     0.465040000000     0          
C2       C      0.590560000000     0.840560000000     0.441890000000     0          
C3       C      0.601380000000     0.818925000000     0.431075000000     0          
H1       H      0.615505000000     0.811866500000     0.438133500000     0          
C1s      C      0.579350000000     0.579350000000     0.079350000000     0          
C2s      C      0.690450000000     0.750000000000     0.190450000000     0          
Cu1      Cu     0.608060000000     0.608060000000     0.000000000000     0          
O1       O      0.628985000000     0.593915000000     0.475480000000     0          
O2       O      0.578400000000     0.578400000000     0.000000000000     0          
C1       C      0.647795000000     0.602205000000     0.465040000000     0          
C2       C      0.659440000000     0.590560000000     0.441890000000     0          
C3       C      0.681075000000     0.601380000000     0.431075000000     0          
H1       H      0.688133500000     0.615505000000     0.438133500000     0          
C1s      C      0.920650000000     0.579350000000     0.079350000000     0          
C2s      C      0.750000000000     0.690450000000     0.190450000000     0          
Cu1      Cu     0.891940000000     0.608060000000     0.000000000000     0          
O1       O      0.906085000000     0.628985000000     0.475480000000     0          
O2       O      0.921600000000     0.578400000000     0.000000000000     0          
C1       C      0.897795000000     0.647795000000     0.465040000000     0          
C2       C      0.909440000000     0.659440000000     0.441890000000     0          
C3       C      0.898620000000     0.681075000000     0.431075000000     0          
H1       H      0.884495000000     0.688133500000     0.438133500000     0          
C1s      C      0.920650000000     0.920650000000     0.079350000000     0          
C2s      C      0.809550000000     0.750000000000     0.190450000000     0          
Cu1      Cu     0.891940000000     0.891940000000     0.000000000000     0          
O1       O      0.871015000000     0.906085000000     0.475480000000     0          
O2       O      0.921600000000     0.921600000000     0.000000000000     0          
C1       C      0.852205000000     0.897795000000     0.465040000000     0          
C2       C      0.840560000000     0.909440000000     0.441890000000     0          
C3       C      0.818925000000     0.898620000000     0.431075000000     0          
H1       H      0.811866500000     0.884495000000     0.438133500000     0          
C1s      C      0.579350000000     0.920650000000     0.079350000000     0          
C2s      C      0.750000000000     0.809550000000     0.190450000000     0          
O1       O      0.593915000000     0.628985000000     0.024520000000     0          
C1       C      0.602205000000     0.647795000000     0.034960000000     0          
C2       C      0.590560000000     0.659440000000     0.058110000000     0          
C3       C      0.601380000000     0.681075000000     0.068925000000     0          
H1       H      0.615505000000     0.688133500000     0.061866500000     0          
C1s      C      0.579350000000     0.920650000000     0.420650000000     0          
C2s      C      0.690450000000     0.750000000000     0.309550000000     0          
O1       O      0.871015000000     0.593915000000     0.024520000000     0          
C1       C      0.852205000000     0.602205000000     0.034960000000     0          
C2       C      0.840560000000     0.590560000000     0.058110000000     0          
C3       C      0.818925000000     0.601380000000     0.068925000000     0          
H1       H      0.811866500000     0.615505000000     0.061866500000     0          
C1s      C      0.579350000000     0.579350000000     0.420650000000     0          
C2s      C      0.750000000000     0.690450000000     0.309550000000     0          
O1       O      0.906085000000     0.871015000000     0.024520000000     0          
C1       C      0.897795000000     0.852205000000     0.034960000000     0          
C2       C      0.909440000000     0.840560000000     0.058110000000     0          
C3       C      0.898620000000     0.818925000000     0.068925000000     0          
H1       H      0.884495000000     0.811866500000     0.061866500000     0          
C1s      C      0.920650000000     0.579350000000     0.420650000000     0          
C2s      C      0.809550000000     0.750000000000     0.309550000000     0          
O1       O      0.628985000000     0.906085000000     0.024520000000     0          
C1       C      0.647795000000     0.897795000000     0.034960000000     0          
C2       C      0.659440000000     0.909440000000     0.058110000000     0          
C3       C      0.681075000000     0.898620000000     0.068925000000     0          
H1       H      0.688133500000     0.884495000000     0.061866500000     0          
C1s      C      0.920650000000     0.920650000000     0.420650000000     0          
C2s      C      0.750000000000     0.809550000000     0.309550000000     0          
Cu1      Cu     0.500000000000     0.608060000000     0.391940000000     0          
O1       O      0.975480000000     0.593915000000     0.371015000000     0          
O2       O      0.500000000000     0.578400000000     0.421600000000     0          
C1       C      0.965040000000     0.602205000000     0.352205000000     0          
C2       C      0.941890000000     0.590560000000     0.340560000000     0          
C3       C      0.931075000000     0.601380000000     0.318925000000     0          
H1       H      0.938133500000     0.615505000000     0.311866500000     0          
C2s      C      0.690450000000     0.690450000000     0.250000000000     0          
Cu1      Cu     0.891940000000     0.500000000000     0.391940000000     0          
O1       O      0.906085000000     0.975480000000     0.371015000000     0          
O2       O      0.921600000000     0.500000000000     0.421600000000     0          
C1       C      0.897795000000     0.965040000000     0.352205000000     0          
C2       C      0.909440000000     0.941890000000     0.340560000000     0          
C3       C      0.898620000000     0.931075000000     0.318925000000     0          
H1       H      0.884495000000     0.938133500000     0.311866500000     0          
C2s      C      0.809550000000     0.690450000000     0.250000000000     0          
Cu1      Cu     0.500000000000     0.891940000000     0.391940000000     0          
O1       O      0.524520000000     0.906085000000     0.371015000000     0          
O2       O      0.500000000000     0.921600000000     0.421600000000     0          
C1       C      0.534960000000     0.897795000000     0.352205000000     0          
C2       C      0.558110000000     0.909440000000     0.340560000000     0          
C3       C      0.568925000000     0.898620000000     0.318925000000     0          
H1       H      0.561866500000     0.884495000000     0.311866500000     0          
C2s      C      0.809550000000     0.809550000000     0.250000000000     0          
Cu1      Cu     0.608060000000     0.500000000000     0.391940000000     0          
O1       O      0.593915000000     0.524520000000     0.371015000000     0          
O2       O      0.578400000000     0.500000000000     0.421600000000     0          
C1       C      0.602205000000     0.534960000000     0.352205000000     0          
C2       C      0.590560000000     0.558110000000     0.340560000000     0          
C3       C      0.601380000000     0.568925000000     0.318925000000     0          
H1       H      0.615505000000     0.561866500000     0.311866500000     0          
C2s      C      0.690450000000     0.809550000000     0.250000000000     0          
Cu1      Cu     0.500000000000     0.891940000000     0.108060000000     0          
O1       O      0.975480000000     0.906085000000     0.128985000000     0          
O2       O      0.500000000000     0.921600000000     0.078400000000     0          
C1       C      0.965040000000     0.897795000000     0.147795000000     0          
C2       C      0.941890000000     0.909440000000     0.159440000000     0          
C3       C      0.931075000000     0.898620000000     0.181075000000     0          
H1       H      0.938133500000     0.884495000000     0.188133500000     0          
Cu1      Cu     0.608060000000     0.500000000000     0.108060000000     0          
O1       O      0.593915000000     0.975480000000     0.128985000000     0          
O2       O      0.578400000000     0.500000000000     0.078400000000     0          
C1       C      0.602205000000     0.965040000000     0.147795000000     0          
C2       C      0.590560000000     0.941890000000     0.159440000000     0          
C3       C      0.601380000000     0.931075000000     0.181075000000     0          
H1       H      0.615505000000     0.938133500000     0.188133500000     0          
Cu1      Cu     0.500000000000     0.608060000000     0.108060000000     0          
O1       O      0.524520000000     0.593915000000     0.128985000000     0          
O2       O      0.500000000000     0.578400000000     0.078400000000     0          
C1       C      0.534960000000     0.602205000000     0.147795000000     0          
C2       C      0.558110000000     0.590560000000     0.159440000000     0          
C3       C      0.568925000000     0.601380000000     0.181075000000     0          
H1       H      0.561866500000     0.615505000000     0.188133500000     0          
Cu1      Cu     0.891940000000     0.500000000000     0.108060000000     0          
O1       O      0.906085000000     0.524520000000     0.128985000000     0          
O2       O      0.921600000000     0.500000000000     0.078400000000     0          
C1       C      0.897795000000     0.534960000000     0.147795000000     0          
C2       C      0.909440000000     0.558110000000     0.159440000000     0          
C3       C      0.898620000000     0.568925000000     0.181075000000     0          
H1       H      0.884495000000     0.561866500000     0.188133500000     0          
O1       O      0.871015000000     0.975480000000     0.093915000000     0          
C1       C      0.852205000000     0.965040000000     0.102205000000     0          
C2       C      0.840560000000     0.941890000000     0.090560000000     0          
C3       C      0.818925000000     0.931075000000     0.101380000000     0          
H1       H      0.811866500000     0.938133500000     0.115505000000     0          
O1       O      0.871015000000     0.524520000000     0.406085000000     0          
C1       C      0.852205000000     0.534960000000     0.397795000000     0          
C2       C      0.840560000000     0.558110000000     0.409440000000     0          
C3       C      0.818925000000     0.568925000000     0.398620000000     0          
H1       H      0.811866500000     0.561866500000     0.384495000000     0          
O1       O      0.975480000000     0.871015000000     0.406085000000     0          
C1       C      0.965040000000     0.852205000000     0.397795000000     0          
C2       C      0.941890000000     0.840560000000     0.409440000000     0          
C3       C      0.931075000000     0.818925000000     0.398620000000     0          
H1       H      0.938133500000     0.811866500000     0.384495000000     0          
O1       O      0.628985000000     0.975480000000     0.406085000000     0          
C1       C      0.647795000000     0.965040000000     0.397795000000     0          
C2       C      0.659440000000     0.941890000000     0.409440000000     0          
C3       C      0.681075000000     0.931075000000     0.398620000000     0          
H1       H      0.688133500000     0.938133500000     0.384495000000     0          
O1       O      0.524520000000     0.628985000000     0.406085000000     0          
C1       C      0.534960000000     0.647795000000     0.397795000000     0          
C2       C      0.558110000000     0.659440000000     0.409440000000     0          
C3       C      0.568925000000     0.681075000000     0.398620000000     0          
H1       H      0.561866500000     0.688133500000     0.384495000000     0          
O1       O      0.628985000000     0.524520000000     0.093915000000     0          
C1       C      0.647795000000     0.534960000000     0.102205000000     0          
C2       C      0.659440000000     0.558110000000     0.090560000000     0          
C3       C      0.681075000000     0.568925000000     0.101380000000     0          
H1       H      0.688133500000     0.561866500000     0.115505000000     0          
O1       O      0.975480000000     0.628985000000     0.093915000000     0          
C1       C      0.965040000000     0.647795000000     0.102205000000     0          
C2       C      0.941890000000     0.659440000000     0.090560000000     0          
C3       C      0.931075000000     0.681075000000     0.101380000000     0          
H1       H      0.938133500000     0.688133500000     0.115505000000     0          
O1       O      0.524520000000     0.871015000000     0.093915000000     0          
C1       C      0.534960000000     0.852205000000     0.102205000000     0          
C2       C      0.558110000000     0.840560000000     0.090560000000     0          
C3       C      0.568925000000     0.818925000000     0.101380000000     0          
H1       H      0.561866500000     0.811866500000     0.115505000000     0          
O1       O      0.906085000000     0.628985000000     0.024520000000     0          
C1       C      0.897795000000     0.647795000000     0.034960000000     0          
C2       C      0.909440000000     0.659440000000     0.058110000000     0          
C3       C      0.898620000000     0.681075000000     0.068925000000     0          
H1       H      0.884495000000     0.688133500000     0.061866500000     0          
O1       O      0.871015000000     0.906085000000     0.024520000000     0          
C1       C      0.852205000000     0.897795000000     0.034960000000     0          
C2       C      0.840560000000     0.909440000000     0.058110000000     0          
C3       C      0.818925000000     0.898620000000     0.068925000000     0          
H1       H      0.811866500000     0.884495000000     0.061866500000     0          
O1       O      0.593915000000     0.871015000000     0.024520000000     0          
C1       C      0.602205000000     0.852205000000     0.034960000000     0          
C2       C      0.590560000000     0.840560000000     0.058110000000     0          
C3       C      0.601380000000     0.818925000000     0.068925000000     0          
H1       H      0.615505000000     0.811866500000     0.061866500000     0          
O1       O      0.628985000000     0.593915000000     0.024520000000     0          
C1       C      0.647795000000     0.602205000000     0.034960000000     0          
C2       C      0.659440000000     0.590560000000     0.058110000000     0          
C3       C      0.681075000000     0.601380000000     0.068925000000     0          
H1       H      0.688133500000     0.615505000000     0.061866500000     0          
O1       O      0.906085000000     0.871015000000     0.475480000000     0          
C1       C      0.897795000000     0.852205000000     0.465040000000     0          
C2       C      0.909440000000     0.840560000000     0.441890000000     0          
C3       C      0.898620000000     0.818925000000     0.431075000000     0          
H1       H      0.884495000000     0.811866500000     0.438133500000     0          
O1       O      0.628985000000     0.906085000000     0.475480000000     0          
C1       C      0.647795000000     0.897795000000     0.465040000000     0          
C2       C      0.659440000000     0.909440000000     0.441890000000     0          
C3       C      0.681075000000     0.898620000000     0.431075000000     0          
H1       H      0.688133500000     0.884495000000     0.438133500000     0          
O1       O      0.593915000000     0.628985000000     0.475480000000     0          
C1       C      0.602205000000     0.647795000000     0.465040000000     0          
C2       C      0.590560000000     0.659440000000     0.441890000000     0          
C3       C      0.601380000000     0.681075000000     0.431075000000     0          
H1       H      0.615505000000     0.688133500000     0.438133500000     0          
O1       O      0.871015000000     0.593915000000     0.475480000000     0          
C1       C      0.852205000000     0.602205000000     0.465040000000     0          
C2       C      0.840560000000     0.590560000000     0.441890000000     0          
C3       C      0.818925000000     0.601380000000     0.431075000000     0          
H1       H      0.811866500000     0.615505000000     0.438133500000     0          
O1       O      0.524520000000     0.906085000000     0.128985000000     0          
C1       C      0.534960000000     0.897795000000     0.147795000000     0          
C2       C      0.558110000000     0.909440000000     0.159440000000     0          
C3       C      0.568925000000     0.898620000000     0.181075000000     0          
H1       H      0.561866500000     0.884495000000     0.188133500000     0          
O1       O      0.593915000000     0.524520000000     0.128985000000     0          
C1       C      0.602205000000     0.534960000000     0.147795000000     0          
C2       C      0.590560000000     0.558110000000     0.159440000000     0          
C3       C      0.601380000000     0.568925000000     0.181075000000     0          
H1       H      0.615505000000     0.561866500000     0.188133500000     0          
O1       O      0.975480000000     0.593915000000     0.128985000000     0          
C1       C      0.965040000000     0.602205000000     0.147795000000     0          
C2       C      0.941890000000     0.590560000000     0.159440000000     0          
C3       C      0.931075000000     0.601380000000     0.181075000000     0          
H1       H      0.938133500000     0.615505000000     0.188133500000     0          
O1       O      0.906085000000     0.975480000000     0.128985000000     0          
C1       C      0.897795000000     0.965040000000     0.147795000000     0          
C2       C      0.909440000000     0.941890000000     0.159440000000     0          
C3       C      0.898620000000     0.931075000000     0.181075000000     0          
H1       H      0.884495000000     0.938133500000     0.188133500000     0          
O1       O      0.524520000000     0.593915000000     0.371015000000     0          
C1       C      0.534960000000     0.602205000000     0.352205000000     0          
C2       C      0.558110000000     0.590560000000     0.340560000000     0          
C3       C      0.568925000000     0.601380000000     0.318925000000     0          
H1       H      0.561866500000     0.615505000000     0.311866500000     0          
O1       O      0.906085000000     0.524520000000     0.371015000000     0          
C1       C      0.897795000000     0.534960000000     0.352205000000     0          
C2       C      0.909440000000     0.558110000000     0.340560000000     0          
C3       C      0.898620000000     0.568925000000     0.318925000000     0          
H1       H      0.884495000000     0.561866500000     0.311866500000     0          
O1       O      0.975480000000     0.906085000000     0.371015000000     0          
C1       C      0.965040000000     0.897795000000     0.352205000000     0          
C2       C      0.941890000000     0.909440000000     0.340560000000     0          
C3       C      0.931075000000     0.898620000000     0.318925000000     0          
H1       H      0.938133500000     0.884495000000     0.311866500000     0          
O1       O      0.593915000000     0.975480000000     0.371015000000     0          
C1       C      0.602205000000     0.965040000000     0.352205000000     0          
C2       C      0.590560000000     0.941890000000     0.340560000000     0          
C3       C      0.601380000000     0.931075000000     0.318925000000     0          
H1       H      0.615505000000     0.938133500000     0.311866500000     0          
O1       O      0.628985000000     0.524520000000     0.406085000000     0          
C1       C      0.647795000000     0.534960000000     0.397795000000     0          
C2       C      0.659440000000     0.558110000000     0.409440000000     0          
C3       C      0.681075000000     0.568925000000     0.398620000000     0          
H1       H      0.688133500000     0.561866500000     0.384495000000     0          
O1       O      0.628985000000     0.975480000000     0.093915000000     0          
C1       C      0.647795000000     0.965040000000     0.102205000000     0          
C2       C      0.659440000000     0.941890000000     0.090560000000     0          
C3       C      0.681075000000     0.931075000000     0.101380000000     0          
H1       H      0.688133500000     0.938133500000     0.115505000000     0          
O1       O      0.524520000000     0.628985000000     0.093915000000     0          
C1       C      0.534960000000     0.647795000000     0.102205000000     0          
C2       C      0.558110000000     0.659440000000     0.090560000000     0          
C3       C      0.568925000000     0.681075000000     0.101380000000     0          
H1       H      0.561866500000     0.688133500000     0.115505000000     0          
O1       O      0.871015000000     0.524520000000     0.093915000000     0          
C1       C      0.852205000000     0.534960000000     0.102205000000     0          
C2       C      0.840560000000     0.558110000000     0.090560000000     0          
C3       C      0.818925000000     0.568925000000     0.101380000000     0          
H1       H      0.811866500000     0.561866500000     0.115505000000     0          
O1       O      0.975480000000     0.871015000000     0.093915000000     0          
C1       C      0.965040000000     0.852205000000     0.102205000000     0          
C2       C      0.941890000000     0.840560000000     0.090560000000     0          
C3       C      0.931075000000     0.818925000000     0.101380000000     0          
H1       H      0.938133500000     0.811866500000     0.115505000000     0          
O1       O      0.871015000000     0.975480000000     0.406085000000     0          
C1       C      0.852205000000     0.965040000000     0.397795000000     0          
C2       C      0.840560000000     0.941890000000     0.409440000000     0          
C3       C      0.818925000000     0.931075000000     0.398620000000     0          
H1       H      0.811866500000     0.938133500000     0.384495000000     0          
O1       O      0.524520000000     0.871015000000     0.406085000000     0          
C1       C      0.534960000000     0.852205000000     0.397795000000     0          
C2       C      0.558110000000     0.840560000000     0.409440000000     0          
C3       C      0.568925000000     0.818925000000     0.398620000000     0          
H1       H      0.561866500000     0.811866500000     0.384495000000     0          
O1       O      0.975480000000     0.628985000000     0.406085000000     0          
C1       C      0.965040000000     0.647795000000     0.397795000000     0          
C2       C      0.941890000000     0.659440000000     0.409440000000     0          
C3       C      0.931075000000     0.681075000000     0.398620000000     0          
H1       H      0.938133500000     0.688133500000     0.384495000000     0          
Cu1      Cu     0.608060000000     0.641940000000     0.250000000000     0          
O1       O      0.593915000000     0.621015000000     0.225480000000     0          
O2       O      0.578400000000     0.671600000000     0.250000000000     0          
C1       C      0.602205000000     0.602205000000     0.215040000000     0          
C2       C      0.590560000000     0.590560000000     0.191890000000     0          
C1s      C      0.579350000000     0.829350000000     0.329350000000     0          
C2s      C      0.690450000000     0.500000000000     0.440450000000     0          
Cu1      Cu     0.608060000000     0.858060000000     0.250000000000     0          
O1       O      0.628985000000     0.843915000000     0.225480000000     0          
O2       O      0.578400000000     0.828400000000     0.250000000000     0          
C1       C      0.647795000000     0.852205000000     0.215040000000     0          
C2       C      0.659440000000     0.840560000000     0.191890000000     0          
C3       C      0.681075000000     0.851380000000     0.181075000000     0          
H1       H      0.688133500000     0.865505000000     0.188133500000     0          
C1s      C      0.920650000000     0.829350000000     0.329350000000     0          
C2s      C      0.750000000000     0.940450000000     0.440450000000     0          
Cu1      Cu     0.891940000000     0.858060000000     0.250000000000     0          
O1       O      0.906085000000     0.878985000000     0.225480000000     0          
O2       O      0.921600000000     0.828400000000     0.250000000000     0          
C1       C      0.897795000000     0.897795000000     0.215040000000     0          
C2       C      0.909440000000     0.909440000000     0.191890000000     0          
C1s      C      0.920650000000     0.670650000000     0.329350000000     0          
C2s      C      0.809550000000     0.500000000000     0.440450000000     0          
Cu1      Cu     0.891940000000     0.641940000000     0.250000000000     0          
O1       O      0.871015000000     0.656085000000     0.225480000000     0          
O2       O      0.921600000000     0.671600000000     0.250000000000     0          
C1       C      0.852205000000     0.647795000000     0.215040000000     0          
C2       C      0.840560000000     0.659440000000     0.191890000000     0          
C3       C      0.818925000000     0.648620000000     0.181075000000     0          
H1       H      0.811866500000     0.634495000000     0.188133500000     0          
C1s      C      0.579350000000     0.670650000000     0.329350000000     0          
C2s      C      0.750000000000     0.559550000000     0.440450000000     0          
O1       O      0.593915000000     0.878985000000     0.274520000000     0          
C1       C      0.602205000000     0.897795000000     0.284960000000     0          
C2       C      0.590560000000     0.909440000000     0.308110000000     0          
C1s      C      0.579350000000     0.670650000000     0.170650000000     0          
C2s      C      0.690450000000     0.500000000000     0.059550000000     0          
O1       O      0.871015000000     0.843915000000     0.274520000000     0          
C1       C      0.852205000000     0.852205000000     0.284960000000     0          
C2       C      0.840560000000     0.840560000000     0.308110000000     0          
C3       C      0.818925000000     0.851380000000     0.318925000000     0          
H1       H      0.811866500000     0.865505000000     0.311866500000     0          
C1s      C      0.579350000000     0.829350000000     0.170650000000     0          
C2s      C      0.750000000000     0.940450000000     0.059550000000     0          
O1       O      0.906085000000     0.621015000000     0.274520000000     0          
C1       C      0.897795000000     0.602205000000     0.284960000000     0          
C2       C      0.909440000000     0.590560000000     0.308110000000     0          
C1s      C      0.920650000000     0.829350000000     0.170650000000     0          
C2s      C      0.809550000000     0.500000000000     0.059550000000     0          
O1       O      0.628985000000     0.656085000000     0.274520000000     0          
C1       C      0.647795000000     0.647795000000     0.284960000000     0          
C2       C      0.659440000000     0.659440000000     0.308110000000     0          
C3       C      0.681075000000     0.648620000000     0.318925000000     0          
H1       H      0.688133500000     0.634495000000     0.311866500000     0          
C1s      C      0.920650000000     0.670650000000     0.170650000000     0          
C2s      C      0.750000000000     0.559550000000     0.059550000000     0          
Cu1      Cu     0.500000000000     0.858060000000     0.141940000000     0          
O1       O      0.975480000000     0.843915000000     0.121015000000     0          
O2       O      0.500000000000     0.828400000000     0.171600000000     0          
C3       C      0.931075000000     0.851380000000     0.068925000000     0          
H1       H      0.938133500000     0.865505000000     0.061866500000     0          
C2s      C      0.690450000000     0.940450000000     0.000000000000     0          
Cu1      Cu     0.891940000000     0.750000000000     0.141940000000     0          
O1       O      0.906085000000     0.725480000000     0.121015000000     0          
O2       O      0.921600000000     0.750000000000     0.171600000000     0          
C1       C      0.897795000000     0.715040000000     0.102205000000     0          
C2       C      0.909440000000     0.691890000000     0.090560000000     0          
C2s      C      0.809550000000     0.940450000000     0.000000000000     0          
Cu1      Cu     0.500000000000     0.641940000000     0.141940000000     0          
O1       O      0.524520000000     0.656085000000     0.121015000000     0          
O2       O      0.500000000000     0.671600000000     0.171600000000     0          
C3       C      0.568925000000     0.648620000000     0.068925000000     0          
H1       H      0.561866500000     0.634495000000     0.061866500000     0          
C2s      C      0.809550000000     0.559550000000     0.000000000000     0          
Cu1      Cu     0.608060000000     0.750000000000     0.141940000000     0          
O1       O      0.593915000000     0.774520000000     0.121015000000     0          
O2       O      0.578400000000     0.750000000000     0.171600000000     0          
C1       C      0.602205000000     0.784960000000     0.102205000000     0          
C2       C      0.590560000000     0.808110000000     0.090560000000     0          
C2s      C      0.690450000000     0.559550000000     0.000000000000     0          
Cu1      Cu     0.500000000000     0.641940000000     0.358060000000     0          
O1       O      0.975480000000     0.656085000000     0.378985000000     0          
O2       O      0.500000000000     0.671600000000     0.328400000000     0          
C3       C      0.931075000000     0.648620000000     0.431075000000     0          
H1       H      0.938133500000     0.634495000000     0.438133500000     0          
Cu1      Cu     0.608060000000     0.750000000000     0.358060000000     0          
O1       O      0.593915000000     0.725480000000     0.378985000000     0          
O2       O      0.578400000000     0.750000000000     0.328400000000     0          
C1       C      0.602205000000     0.715040000000     0.397795000000     0          
C2       C      0.590560000000     0.691890000000     0.409440000000     0          
Cu1      Cu     0.500000000000     0.858060000000     0.358060000000     0          
O1       O      0.524520000000     0.843915000000     0.378985000000     0          
O2       O      0.500000000000     0.828400000000     0.328400000000     0          
C3       C      0.568925000000     0.851380000000     0.431075000000     0          
H1       H      0.561866500000     0.865505000000     0.438133500000     0          
Cu1      Cu     0.891940000000     0.750000000000     0.358060000000     0          
O1       O      0.906085000000     0.774520000000     0.378985000000     0          
O2       O      0.921600000000     0.750000000000     0.328400000000     0          
C1       C      0.897795000000     0.784960000000     0.397795000000     0          
C2       C      0.909440000000     0.808110000000     0.409440000000     0          
O1       O      0.871015000000     0.725480000000     0.343915000000     0          
C1       C      0.852205000000     0.715040000000     0.352205000000     0          
C2       C      0.840560000000     0.691890000000     0.340560000000     0          
C3       C      0.818925000000     0.681075000000     0.351380000000     0          
H1       H      0.811866500000     0.688133500000     0.365505000000     0          
O1       O      0.871015000000     0.774520000000     0.156085000000     0          
C1       C      0.852205000000     0.784960000000     0.147795000000     0          
C2       C      0.840560000000     0.808110000000     0.159440000000     0          
C3       C      0.818925000000     0.818925000000     0.148620000000     0          
H1       H      0.811866500000     0.811866500000     0.134495000000     0          
O1       O      0.975480000000     0.621015000000     0.156085000000     0          
C3       C      0.931075000000     0.568925000000     0.148620000000     0          
H1       H      0.938133500000     0.561866500000     0.134495000000     0          
O1       O      0.628985000000     0.725480000000     0.156085000000     0          
C1       C      0.647795000000     0.715040000000     0.147795000000     0          
C2       C      0.659440000000     0.691890000000     0.159440000000     0          
C3       C      0.681075000000     0.681075000000     0.148620000000     0          
H1       H      0.688133500000     0.688133500000     0.134495000000     0          
O1       O      0.524520000000     0.878985000000     0.156085000000     0          
C3       C      0.568925000000     0.931075000000     0.148620000000     0          
H1       H      0.561866500000     0.938133500000     0.134495000000     0          
O1       O      0.628985000000     0.774520000000     0.343915000000     0          
C1       C      0.647795000000     0.784960000000     0.352205000000     0          
C2       C      0.659440000000     0.808110000000     0.340560000000     0          
C3       C      0.681075000000     0.818925000000     0.351380000000     0          
H1       H      0.688133500000     0.811866500000     0.365505000000     0          
O1       O      0.975480000000     0.878985000000     0.343915000000     0          
C3       C      0.931075000000     0.931075000000     0.351380000000     0          
H1       H      0.938133500000     0.938133500000     0.365505000000     0          
O1       O      0.524520000000     0.621015000000     0.343915000000     0          
C3       C      0.568925000000     0.568925000000     0.351380000000     0          
H1       H      0.561866500000     0.561866500000     0.365505000000     0          
O1       O      0.906085000000     0.878985000000     0.274520000000     0          
C1       C      0.897795000000     0.897795000000     0.284960000000     0          
C2       C      0.909440000000     0.909440000000     0.308110000000     0          
O1       O      0.871015000000     0.656085000000     0.274520000000     0          
C1       C      0.852205000000     0.647795000000     0.284960000000     0          
C2       C      0.840560000000     0.659440000000     0.308110000000     0          
C3       C      0.818925000000     0.648620000000     0.318925000000     0          
H1       H      0.811866500000     0.634495000000     0.311866500000     0          
O1       O      0.593915000000     0.621015000000     0.274520000000     0          
C1       C      0.602205000000     0.602205000000     0.284960000000     0          
C2       C      0.590560000000     0.590560000000     0.308110000000     0          
O1       O      0.628985000000     0.843915000000     0.274520000000     0          
C1       C      0.647795000000     0.852205000000     0.284960000000     0          
C2       C      0.659440000000     0.840560000000     0.308110000000     0          
C3       C      0.681075000000     0.851380000000     0.318925000000     0          
H1       H      0.688133500000     0.865505000000     0.311866500000     0          
O1       O      0.906085000000     0.621015000000     0.225480000000     0          
C1       C      0.897795000000     0.602205000000     0.215040000000     0          
C2       C      0.909440000000     0.590560000000     0.191890000000     0          
O1       O      0.628985000000     0.656085000000     0.225480000000     0          
C1       C      0.647795000000     0.647795000000     0.215040000000     0          
C2       C      0.659440000000     0.659440000000     0.191890000000     0          
C3       C      0.681075000000     0.648620000000     0.181075000000     0          
H1       H      0.688133500000     0.634495000000     0.188133500000     0          
O1       O      0.593915000000     0.878985000000     0.225480000000     0          
C1       C      0.602205000000     0.897795000000     0.215040000000     0          
C2       C      0.590560000000     0.909440000000     0.191890000000     0          
O1       O      0.871015000000     0.843915000000     0.225480000000     0          
C1       C      0.852205000000     0.852205000000     0.215040000000     0          
C2       C      0.840560000000     0.840560000000     0.191890000000     0          
C3       C      0.818925000000     0.851380000000     0.181075000000     0          
H1       H      0.811866500000     0.865505000000     0.188133500000     0          
O1       O      0.524520000000     0.656085000000     0.378985000000     0          
C3       C      0.568925000000     0.648620000000     0.431075000000     0          
H1       H      0.561866500000     0.634495000000     0.438133500000     0          
O1       O      0.593915000000     0.774520000000     0.378985000000     0          
C1       C      0.602205000000     0.784960000000     0.397795000000     0          
C2       C      0.590560000000     0.808110000000     0.409440000000     0          
O1       O      0.975480000000     0.843915000000     0.378985000000     0          
C3       C      0.931075000000     0.851380000000     0.431075000000     0          
H1       H      0.938133500000     0.865505000000     0.438133500000     0          
O1       O      0.906085000000     0.725480000000     0.378985000000     0          
C1       C      0.897795000000     0.715040000000     0.397795000000     0          
C2       C      0.909440000000     0.691890000000     0.409440000000     0          
O1       O      0.524520000000     0.843915000000     0.121015000000     0          
C3       C      0.568925000000     0.851380000000     0.068925000000     0          
H1       H      0.561866500000     0.865505000000     0.061866500000     0          
O1       O      0.906085000000     0.774520000000     0.121015000000     0          
C1       C      0.897795000000     0.784960000000     0.102205000000     0          
C2       C      0.909440000000     0.808110000000     0.090560000000     0          
O1       O      0.975480000000     0.656085000000     0.121015000000     0          
C3       C      0.931075000000     0.648620000000     0.068925000000     0          
H1       H      0.938133500000     0.634495000000     0.061866500000     0          
O1       O      0.593915000000     0.725480000000     0.121015000000     0          
C1       C      0.602205000000     0.715040000000     0.102205000000     0          
C2       C      0.590560000000     0.691890000000     0.090560000000     0          
O1       O      0.628985000000     0.774520000000     0.156085000000     0          
C1       C      0.647795000000     0.784960000000     0.147795000000     0          
C2       C      0.659440000000     0.808110000000     0.159440000000     0          
C3       C      0.681075000000     0.818925000000     0.148620000000     0          
H1       H      0.688133500000     0.811866500000     0.134495000000     0          
O1       O      0.628985000000     0.725480000000     0.343915000000     0          
C1       C      0.647795000000     0.715040000000     0.352205000000     0          
C2       C      0.659440000000     0.691890000000     0.340560000000     0          
C3       C      0.681075000000     0.681075000000     0.351380000000     0          
H1       H      0.688133500000     0.688133500000     0.365505000000     0          
O1       O      0.524520000000     0.878985000000     0.343915000000     0          
C3       C      0.568925000000     0.931075000000     0.351380000000     0          
H1       H      0.561866500000     0.938133500000     0.365505000000     0          
O1       O      0.871015000000     0.774520000000     0.343915000000     0          
C1       C      0.852205000000     0.784960000000     0.352205000000     0          
C2       C      0.840560000000     0.808110000000     0.340560000000     0          
C3       C      0.818925000000     0.818925000000     0.351380000000     0          
H1       H      0.811866500000     0.811866500000     0.365505000000     0          
O1       O      0.975480000000     0.621015000000     0.343915000000     0          
C3       C      0.931075000000     0.568925000000     0.351380000000     0          
H1       H      0.938133500000     0.561866500000     0.365505000000     0          
O1       O      0.871015000000     0.725480000000     0.156085000000     0          
C1       C      0.852205000000     0.715040000000     0.147795000000     0          
C2       C      0.840560000000     0.691890000000     0.159440000000     0          
C3       C      0.818925000000     0.681075000000     0.148620000000     0          
H1       H      0.811866500000     0.688133500000     0.134495000000     0          
O1       O      0.524520000000     0.621015000000     0.156085000000     0          
C3       C      0.568925000000     0.568925000000     0.148620000000     0          
H1       H      0.561866500000     0.561866500000     0.134495000000     0          
O1       O      0.975480000000     0.878985000000     0.156085000000     0          
C3       C      0.931075000000     0.931075000000     0.148620000000     0          
H1       H      0.938133500000     0.938133500000     0.134495000000     0          
Cu1      Cu     0.858060000000     0.891940000000     0.250000000000     0          
O1       O      0.843915000000     0.871015000000     0.225480000000     0          
O2       O      0.828400000000     0.921600000000     0.250000000000     0          
C3       C      0.851380000000     0.818925000000     0.181075000000     0          
H1       H      0.865505000000     0.811866500000     0.188133500000     0          
C1s      C      0.829350000000     0.579350000000     0.329350000000     0          
C2s      C      0.940450000000     0.750000000000     0.440450000000     0          
Cu1      Cu     0.858060000000     0.608060000000     0.250000000000     0          
O1       O      0.878985000000     0.593915000000     0.225480000000     0          
O2       O      0.828400000000     0.578400000000     0.250000000000     0          
C1s      C      0.670650000000     0.579350000000     0.329350000000     0          
C2s      C      0.500000000000     0.690450000000     0.440450000000     0          
Cu1      Cu     0.641940000000     0.608060000000     0.250000000000     0          
O1       O      0.656085000000     0.628985000000     0.225480000000     0          
O2       O      0.671600000000     0.578400000000     0.250000000000     0          
C3       C      0.648620000000     0.681075000000     0.181075000000     0          
H1       H      0.634495000000     0.688133500000     0.188133500000     0          
C1s      C      0.670650000000     0.920650000000     0.329350000000     0          
C2s      C      0.559550000000     0.750000000000     0.440450000000     0          
Cu1      Cu     0.641940000000     0.891940000000     0.250000000000     0          
O1       O      0.621015000000     0.906085000000     0.225480000000     0          
O2       O      0.671600000000     0.921600000000     0.250000000000     0          
C1s      C      0.829350000000     0.920650000000     0.329350000000     0          
C2s      C      0.500000000000     0.809550000000     0.440450000000     0          
O1       O      0.843915000000     0.628985000000     0.274520000000     0          
C3       C      0.851380000000     0.681075000000     0.318925000000     0          
H1       H      0.865505000000     0.688133500000     0.311866500000     0          
C1s      C      0.829350000000     0.920650000000     0.170650000000     0          
C2s      C      0.940450000000     0.750000000000     0.059550000000     0          
O1       O      0.621015000000     0.593915000000     0.274520000000     0          
C1s      C      0.829350000000     0.579350000000     0.170650000000     0          
C2s      C      0.500000000000     0.690450000000     0.059550000000     0          
O1       O      0.656085000000     0.871015000000     0.274520000000     0          
C3       C      0.648620000000     0.818925000000     0.318925000000     0          
H1       H      0.634495000000     0.811866500000     0.311866500000     0          
C1s      C      0.670650000000     0.579350000000     0.170650000000     0          
C2s      C      0.559550000000     0.750000000000     0.059550000000     0          
O1       O      0.878985000000     0.906085000000     0.274520000000     0          
C1s      C      0.670650000000     0.920650000000     0.170650000000     0          
C2s      C      0.500000000000     0.809550000000     0.059550000000     0          
Cu1      Cu     0.750000000000     0.608060000000     0.141940000000     0          
O1       O      0.725480000000     0.593915000000     0.121015000000     0          
O2       O      0.750000000000     0.578400000000     0.171600000000     0          
C1       C      0.715040000000     0.602205000000     0.102205000000     0          
C2       C      0.691890000000     0.590560000000     0.090560000000     0          
C2s      C      0.940450000000     0.690450000000     0.000000000000     0          
Cu1      Cu     0.641940000000     0.500000000000     0.141940000000     0          
O1       O      0.656085000000     0.975480000000     0.121015000000     0          
O2       O      0.671600000000     0.500000000000     0.171600000000     0          
C3       C      0.648620000000     0.931075000000     0.068925000000     0          
H1       H      0.634495000000     0.938133500000     0.061866500000     0          
C2s      C      0.559550000000     0.690450000000     0.000000000000     0          
Cu1      Cu     0.750000000000     0.891940000000     0.141940000000     0          
O1       O      0.774520000000     0.906085000000     0.121015000000     0          
O2       O      0.750000000000     0.921600000000     0.171600000000     0          
C1       C      0.784960000000     0.897795000000     0.102205000000     0          
C2       C      0.808110000000     0.909440000000     0.090560000000     0          
C2s      C      0.559550000000     0.809550000000     0.000000000000     0          
Cu1      Cu     0.858060000000     0.500000000000     0.141940000000     0          
O1       O      0.843915000000     0.524520000000     0.121015000000     0          
O2       O      0.828400000000     0.500000000000     0.171600000000     0          
C3       C      0.851380000000     0.568925000000     0.068925000000     0          
H1       H      0.865505000000     0.561866500000     0.061866500000     0          
C2s      C      0.940450000000     0.809550000000     0.000000000000     0          
Cu1      Cu     0.750000000000     0.891940000000     0.358060000000     0          
O1       O      0.725480000000     0.906085000000     0.378985000000     0          
O2       O      0.750000000000     0.921600000000     0.328400000000     0          
C1       C      0.715040000000     0.897795000000     0.397795000000     0          
C2       C      0.691890000000     0.909440000000     0.409440000000     0          
Cu1      Cu     0.858060000000     0.500000000000     0.358060000000     0          
O1       O      0.843915000000     0.975480000000     0.378985000000     0          
O2       O      0.828400000000     0.500000000000     0.328400000000     0          
C3       C      0.851380000000     0.931075000000     0.431075000000     0          
H1       H      0.865505000000     0.938133500000     0.438133500000     0          
Cu1      Cu     0.750000000000     0.608060000000     0.358060000000     0          
O1       O      0.774520000000     0.593915000000     0.378985000000     0          
O2       O      0.750000000000     0.578400000000     0.328400000000     0          
C1       C      0.784960000000     0.602205000000     0.397795000000     0          
C2       C      0.808110000000     0.590560000000     0.409440000000     0          
Cu1      Cu     0.641940000000     0.500000000000     0.358060000000     0          
O1       O      0.656085000000     0.524520000000     0.378985000000     0          
O2       O      0.671600000000     0.500000000000     0.328400000000     0          
C3       C      0.648620000000     0.568925000000     0.431075000000     0          
H1       H      0.634495000000     0.561866500000     0.438133500000     0          
O1       O      0.621015000000     0.975480000000     0.343915000000     0          
O1       O      0.621015000000     0.524520000000     0.156085000000     0          
O1       O      0.725480000000     0.871015000000     0.156085000000     0          
C1       C      0.715040000000     0.852205000000     0.147795000000     0          
C2       C      0.691890000000     0.840560000000     0.159440000000     0          
O1       O      0.878985000000     0.975480000000     0.156085000000     0          
O1       O      0.774520000000     0.628985000000     0.156085000000     0          
C1       C      0.784960000000     0.647795000000     0.147795000000     0          
C2       C      0.808110000000     0.659440000000     0.159440000000     0          
O1       O      0.878985000000     0.524520000000     0.343915000000     0          
O1       O      0.725480000000     0.628985000000     0.343915000000     0          
C1       C      0.715040000000     0.647795000000     0.352205000000     0          
C2       C      0.691890000000     0.659440000000     0.340560000000     0          
O1       O      0.774520000000     0.871015000000     0.343915000000     0          
C1       C      0.784960000000     0.852205000000     0.352205000000     0          
C2       C      0.808110000000     0.840560000000     0.340560000000     0          
O1       O      0.656085000000     0.628985000000     0.274520000000     0          
C3       C      0.648620000000     0.681075000000     0.318925000000     0          
H1       H      0.634495000000     0.688133500000     0.311866500000     0          
O1       O      0.621015000000     0.906085000000     0.274520000000     0          
O1       O      0.843915000000     0.871015000000     0.274520000000     0          
C3       C      0.851380000000     0.818925000000     0.318925000000     0          
H1       H      0.865505000000     0.811866500000     0.311866500000     0          
O1       O      0.878985000000     0.593915000000     0.274520000000     0          
O1       O      0.656085000000     0.871015000000     0.225480000000     0          
C3       C      0.648620000000     0.818925000000     0.181075000000     0          
H1       H      0.634495000000     0.811866500000     0.188133500000     0          
O1       O      0.878985000000     0.906085000000     0.225480000000     0          
O1       O      0.843915000000     0.628985000000     0.225480000000     0          
C3       C      0.851380000000     0.681075000000     0.181075000000     0          
H1       H      0.865505000000     0.688133500000     0.188133500000     0          
O1       O      0.621015000000     0.593915000000     0.225480000000     0          
O1       O      0.774520000000     0.906085000000     0.378985000000     0          
C1       C      0.784960000000     0.897795000000     0.397795000000     0          
C2       C      0.808110000000     0.909440000000     0.409440000000     0          
O1       O      0.843915000000     0.524520000000     0.378985000000     0          
C3       C      0.851380000000     0.568925000000     0.431075000000     0          
H1       H      0.865505000000     0.561866500000     0.438133500000     0          
O1       O      0.725480000000     0.593915000000     0.378985000000     0          
C1       C      0.715040000000     0.602205000000     0.397795000000     0          
C2       C      0.691890000000     0.590560000000     0.409440000000     0          
O1       O      0.656085000000     0.975480000000     0.378985000000     0          
C3       C      0.648620000000     0.931075000000     0.431075000000     0          
H1       H      0.634495000000     0.938133500000     0.438133500000     0          
O1       O      0.774520000000     0.593915000000     0.121015000000     0          
C1       C      0.784960000000     0.602205000000     0.102205000000     0          
C2       C      0.808110000000     0.590560000000     0.090560000000     0          
O1       O      0.656085000000     0.524520000000     0.121015000000     0          
C3       C      0.648620000000     0.568925000000     0.068925000000     0          
H1       H      0.634495000000     0.561866500000     0.061866500000     0          
O1       O      0.725480000000     0.906085000000     0.121015000000     0          
C1       C      0.715040000000     0.897795000000     0.102205000000     0          
C2       C      0.691890000000     0.909440000000     0.090560000000     0          
O1       O      0.843915000000     0.975480000000     0.121015000000     0          
C3       C      0.851380000000     0.931075000000     0.068925000000     0          
H1       H      0.865505000000     0.938133500000     0.061866500000     0          
O1       O      0.878985000000     0.524520000000     0.156085000000     0          
O1       O      0.878985000000     0.975480000000     0.343915000000     0          
O1       O      0.774520000000     0.628985000000     0.343915000000     0          
C1       C      0.784960000000     0.647795000000     0.352205000000     0          
C2       C      0.808110000000     0.659440000000     0.340560000000     0          
O1       O      0.621015000000     0.524520000000     0.343915000000     0          
O1       O      0.725480000000     0.871015000000     0.343915000000     0          
C1       C      0.715040000000     0.852205000000     0.352205000000     0          
C2       C      0.691890000000     0.840560000000     0.340560000000     0          
O1       O      0.621015000000     0.975480000000     0.156085000000     0          
O1       O      0.774520000000     0.871015000000     0.156085000000     0          
C1       C      0.784960000000     0.852205000000     0.147795000000     0          
C2       C      0.808110000000     0.840560000000     0.159440000000     0          
O1       O      0.725480000000     0.628985000000     0.156085000000     0          
C1       C      0.715040000000     0.647795000000     0.147795000000     0          
C2       C      0.691890000000     0.659440000000     0.159440000000     0          
Cu1      Cu     0.858060000000     0.641940000000     0.000000000000     0          
O1       O      0.843915000000     0.621015000000     0.475480000000     0          
O2       O      0.828400000000     0.671600000000     0.000000000000     0          
C1s      C      0.829350000000     0.829350000000     0.079350000000     0          
C2s      C      0.940450000000     0.500000000000     0.190450000000     0          
Cu1      Cu     0.858060000000     0.858060000000     0.000000000000     0          
O1       O      0.878985000000     0.843915000000     0.475480000000     0          
O2       O      0.828400000000     0.828400000000     0.000000000000     0          
C1s      C      0.670650000000     0.829350000000     0.079350000000     0          
C2s      C      0.500000000000     0.940450000000     0.190450000000     0          
Cu1      Cu     0.641940000000     0.858060000000     0.000000000000     0          
O1       O      0.656085000000     0.878985000000     0.475480000000     0          
O2       O      0.671600000000     0.828400000000     0.000000000000     0          
C1s      C      0.670650000000     0.670650000000     0.079350000000     0          
C2s      C      0.559550000000     0.500000000000     0.190450000000     0          
Cu1      Cu     0.641940000000     0.641940000000     0.000000000000     0          
O1       O      0.621015000000     0.656085000000     0.475480000000     0          
O2       O      0.671600000000     0.671600000000     0.000000000000     0          
C1s      C      0.829350000000     0.670650000000     0.079350000000     0          
C2s      C      0.500000000000     0.559550000000     0.190450000000     0          
O1       O      0.843915000000     0.878985000000     0.024520000000     0          
C1s      C      0.829350000000     0.670650000000     0.420650000000     0          
C2s      C      0.940450000000     0.500000000000     0.309550000000     0          
O1       O      0.621015000000     0.843915000000     0.024520000000     0          
C1s      C      0.829350000000     0.829350000000     0.420650000000     0          
C2s      C      0.500000000000     0.940450000000     0.309550000000     0          
O1       O      0.656085000000     0.621015000000     0.024520000000     0          
C1s      C      0.670650000000     0.829350000000     0.420650000000     0          
C2s      C      0.559550000000     0.500000000000     0.309550000000     0          
O1       O      0.878985000000     0.656085000000     0.024520000000     0          
C1s      C      0.670650000000     0.670650000000     0.420650000000     0          
C2s      C      0.500000000000     0.559550000000     0.309550000000     0          
Cu1      Cu     0.750000000000     0.858060000000     0.391940000000     0          
O1       O      0.725480000000     0.843915000000     0.371015000000     0          
O2       O      0.750000000000     0.828400000000     0.421600000000     0          
C2s      C      0.940450000000     0.940450000000     0.250000000000     0          
Cu1      Cu     0.641940000000     0.750000000000     0.391940000000     0          
O1       O      0.656085000000     0.725480000000     0.371015000000     0          
O2       O      0.671600000000     0.750000000000     0.421600000000     0          
C2s      C      0.559550000000     0.940450000000     0.250000000000     0          
Cu1      Cu     0.750000000000     0.641940000000     0.391940000000     0          
O1       O      0.774520000000     0.656085000000     0.371015000000     0          
O2       O      0.750000000000     0.671600000000     0.421600000000     0          
C2s      C      0.559550000000     0.559550000000     0.250000000000     0          
Cu1      Cu     0.858060000000     0.750000000000     0.391940000000     0          
O1       O      0.843915000000     0.774520000000     0.371015000000     0          
O2       O      0.828400000000     0.750000000000     0.421600000000     0          
C2s      C      0.940450000000     0.559550000000     0.250000000000     0          
Cu1      Cu     0.750000000000     0.641940000000     0.108060000000     0          
O1       O      0.725480000000     0.656085000000     0.128985000000     0          
O2       O      0.750000000000     0.671600000000     0.078400000000     0          
Cu1      Cu     0.858060000000     0.750000000000     0.108060000000     0          
O1       O      0.843915000000     0.725480000000     0.128985000000     0          
O2       O      0.828400000000     0.750000000000     0.078400000000     0          
Cu1      Cu     0.750000000000     0.858060000000     0.108060000000     0          
O1       O      0.774520000000     0.843915000000     0.128985000000     0          
O2       O      0.750000000000     0.828400000000     0.078400000000     0          
Cu1      Cu     0.641940000000     0.750000000000     0.108060000000     0          
O1       O      0.656085000000     0.774520000000     0.128985000000     0          
O2       O      0.671600000000     0.750000000000     0.078400000000     0          
O1       O      0.621015000000     0.725480000000     0.093915000000     0          
O1       O      0.621015000000     0.774520000000     0.406085000000     0          
O1       O      0.725480000000     0.621015000000     0.406085000000     0          
O1       O      0.878985000000     0.725480000000     0.406085000000     0          
O1       O      0.774520000000     0.878985000000     0.406085000000     0          
O1       O      0.878985000000     0.774520000000     0.093915000000     0          
O1       O      0.725480000000     0.878985000000     0.093915000000     0          
O1       O      0.774520000000     0.621015000000     0.093915000000     0          
O1       O      0.656085000000     0.878985000000     0.024520000000     0          
O1       O      0.621015000000     0.656085000000     0.024520000000     0          
O1       O      0.843915000000     0.621015000000     0.024520000000     0          
O1       O      0.878985000000     0.843915000000     0.024520000000     0          
O1       O      0.656085000000     0.621015000000     0.475480000000     0          
O1       O      0.878985000000     0.656085000000     0.475480000000     0          
O1       O      0.843915000000     0.878985000000     0.475480000000     0          
O1       O      0.621015000000     0.843915000000     0.475480000000     0          
O1       O      0.774520000000     0.656085000000     0.128985000000     0          
O1       O      0.843915000000     0.774520000000     0.128985000000     0          
O1       O      0.725480000000     0.843915000000     0.128985000000     0          
O1       O      0.656085000000     0.725480000000     0.128985000000     0          
O1       O      0.774520000000     0.843915000000     0.371015000000     0          
O1       O      0.656085000000     0.774520000000     0.371015000000     0          
O1       O      0.725480000000     0.656085000000     0.371015000000     0          
O1       O      0.843915000000     0.725480000000     0.371015000000     0          
O1       O      0.878985000000     0.774520000000     0.406085000000     0          
O1       O      0.878985000000     0.725480000000     0.093915000000     0          
O1       O      0.774520000000     0.878985000000     0.093915000000     0          
O1       O      0.621015000000     0.774520000000     0.093915000000     0          
O1       O      0.725480000000     0.621015000000     0.093915000000     0          
O1       O      0.621015000000     0.725480000000     0.406085000000     0          
O1       O      0.774520000000     0.621015000000     0.406085000000     0          
O1       O      0.725480000000     0.878985000000     0.406085000000     0          
Cu1      Cu     0.608060000000     0.891940000000     0.500000000000     0          
O1       O      0.593915000000     0.871015000000     0.975480000000     0          
O2       O      0.578400000000     0.921600000000     0.500000000000     0          
C1       C      0.602205000000     0.852205000000     0.965040000000     0          
C2       C      0.590560000000     0.840560000000     0.941890000000     0          
C3       C      0.601380000000     0.818925000000     0.931075000000     0          
H1       H      0.615505000000     0.811866500000     0.938133500000     0          
C1s      C      0.579350000000     0.579350000000     0.579350000000     0          
C2s      C      0.690450000000     0.750000000000     0.690450000000     0          
Cu1      Cu     0.608060000000     0.608060000000     0.500000000000     0          
O1       O      0.628985000000     0.593915000000     0.975480000000     0          
O2       O      0.578400000000     0.578400000000     0.500000000000     0          
C1       C      0.647795000000     0.602205000000     0.965040000000     0          
C2       C      0.659440000000     0.590560000000     0.941890000000     0          
C3       C      0.681075000000     0.601380000000     0.931075000000     0          
H1       H      0.688133500000     0.615505000000     0.938133500000     0          
C1s      C      0.920650000000     0.579350000000     0.579350000000     0          
C2s      C      0.750000000000     0.690450000000     0.690450000000     0          
Cu1      Cu     0.891940000000     0.608060000000     0.500000000000     0          
O1       O      0.906085000000     0.628985000000     0.975480000000     0          
O2       O      0.921600000000     0.578400000000     0.500000000000     0          
C1       C      0.897795000000     0.647795000000     0.965040000000     0          
C2       C      0.909440000000     0.659440000000     0.941890000000     0          
C3       C      0.898620000000     0.681075000000     0.931075000000     0          
H1       H      0.884495000000     0.688133500000     0.938133500000     0          
C1s      C      0.920650000000     0.920650000000     0.579350000000     0          
C2s      C      0.809550000000     0.750000000000     0.690450000000     0          
Cu1      Cu     0.891940000000     0.891940000000     0.500000000000     0          
O1       O      0.871015000000     0.906085000000     0.975480000000     0          
O2       O      0.921600000000     0.921600000000     0.500000000000     0          
C1       C      0.852205000000     0.897795000000     0.965040000000     0          
C2       C      0.840560000000     0.909440000000     0.941890000000     0          
C3       C      0.818925000000     0.898620000000     0.931075000000     0          
H1       H      0.811866500000     0.884495000000     0.938133500000     0          
C1s      C      0.579350000000     0.920650000000     0.579350000000     0          
C2s      C      0.750000000000     0.809550000000     0.690450000000     0          
O1       O      0.593915000000     0.628985000000     0.524520000000     0          
C1       C      0.602205000000     0.647795000000     0.534960000000     0          
C2       C      0.590560000000     0.659440000000     0.558110000000     0          
C3       C      0.601380000000     0.681075000000     0.568925000000     0          
H1       H      0.615505000000     0.688133500000     0.561866500000     0          
C1s      C      0.579350000000     0.920650000000     0.920650000000     0          
C2s      C      0.690450000000     0.750000000000     0.809550000000     0          
O1       O      0.871015000000     0.593915000000     0.524520000000     0          
C1       C      0.852205000000     0.602205000000     0.534960000000     0          
C2       C      0.840560000000     0.590560000000     0.558110000000     0          
C3       C      0.818925000000     0.601380000000     0.568925000000     0          
H1       H      0.811866500000     0.615505000000     0.561866500000     0          
C1s      C      0.579350000000     0.579350000000     0.920650000000     0          
C2s      C      0.750000000000     0.690450000000     0.809550000000     0          
O1       O      0.906085000000     0.871015000000     0.524520000000     0          
C1       C      0.897795000000     0.852205000000     0.534960000000     0          
C2       C      0.909440000000     0.840560000000     0.558110000000     0          
C3       C      0.898620000000     0.818925000000     0.568925000000     0          
H1       H      0.884495000000     0.811866500000     0.561866500000     0          
C1s      C      0.920650000000     0.579350000000     0.920650000000     0          
C2s      C      0.809550000000     0.750000000000     0.809550000000     0          
O1       O      0.628985000000     0.906085000000     0.524520000000     0          
C1       C      0.647795000000     0.897795000000     0.534960000000     0          
C2       C      0.659440000000     0.909440000000     0.558110000000     0          
C3       C      0.681075000000     0.898620000000     0.568925000000     0          
H1       H      0.688133500000     0.884495000000     0.561866500000     0          
C1s      C      0.920650000000     0.920650000000     0.920650000000     0          
C2s      C      0.750000000000     0.809550000000     0.809550000000     0          
Cu1      Cu     0.500000000000     0.608060000000     0.891940000000     0          
O1       O      0.975480000000     0.593915000000     0.871015000000     0          
O2       O      0.500000000000     0.578400000000     0.921600000000     0          
C1       C      0.965040000000     0.602205000000     0.852205000000     0          
C2       C      0.941890000000     0.590560000000     0.840560000000     0          
C3       C      0.931075000000     0.601380000000     0.818925000000     0          
H1       H      0.938133500000     0.615505000000     0.811866500000     0          
C2s      C      0.690450000000     0.690450000000     0.750000000000     0          
Cu1      Cu     0.891940000000     0.500000000000     0.891940000000     0          
O1       O      0.906085000000     0.975480000000     0.871015000000     0          
O2       O      0.921600000000     0.500000000000     0.921600000000     0          
C1       C      0.897795000000     0.965040000000     0.852205000000     0          
C2       C      0.909440000000     0.941890000000     0.840560000000     0          
C3       C      0.898620000000     0.931075000000     0.818925000000     0          
H1       H      0.884495000000     0.938133500000     0.811866500000     0          
C2s      C      0.809550000000     0.690450000000     0.750000000000     0          
Cu1      Cu     0.500000000000     0.891940000000     0.891940000000     0          
O1       O      0.524520000000     0.906085000000     0.871015000000     0          
O2       O      0.500000000000     0.921600000000     0.921600000000     0          
C1       C      0.534960000000     0.897795000000     0.852205000000     0          
C2       C      0.558110000000     0.909440000000     0.840560000000     0          
C3       C      0.568925000000     0.898620000000     0.818925000000     0          
H1       H      0.561866500000     0.884495000000     0.811866500000     0          
C2s      C      0.809550000000     0.809550000000     0.750000000000     0          
Cu1      Cu     0.608060000000     0.500000000000     0.891940000000     0          
O1       O      0.593915000000     0.524520000000     0.871015000000     0          
O2       O      0.578400000000     0.500000000000     0.921600000000     0          
C1       C      0.602205000000     0.534960000000     0.852205000000     0          
C2       C      0.590560000000     0.558110000000     0.840560000000     0          
C3       C      0.601380000000     0.568925000000     0.818925000000     0          
H1       H      0.615505000000     0.561866500000     0.811866500000     0          
C2s      C      0.690450000000     0.809550000000     0.750000000000     0          
Cu1      Cu     0.500000000000     0.891940000000     0.608060000000     0          
O1       O      0.975480000000     0.906085000000     0.628985000000     0          
O2       O      0.500000000000     0.921600000000     0.578400000000     0          
C1       C      0.965040000000     0.897795000000     0.647795000000     0          
C2       C      0.941890000000     0.909440000000     0.659440000000     0          
C3       C      0.931075000000     0.898620000000     0.681075000000     0          
H1       H      0.938133500000     0.884495000000     0.688133500000     0          
Cu1      Cu     0.608060000000     0.500000000000     0.608060000000     0          
O1       O      0.593915000000     0.975480000000     0.628985000000     0          
O2       O      0.578400000000     0.500000000000     0.578400000000     0          
C1       C      0.602205000000     0.965040000000     0.647795000000     0          
C2       C      0.590560000000     0.941890000000     0.659440000000     0          
C3       C      0.601380000000     0.931075000000     0.681075000000     0          
H1       H      0.615505000000     0.938133500000     0.688133500000     0          
Cu1      Cu     0.500000000000     0.608060000000     0.608060000000     0          
O1       O      0.524520000000     0.593915000000     0.628985000000     0          
O2       O      0.500000000000     0.578400000000     0.578400000000     0          
C1       C      0.534960000000     0.602205000000     0.647795000000     0          
C2       C      0.558110000000     0.590560000000     0.659440000000     0          
C3       C      0.568925000000     0.601380000000     0.681075000000     0          
H1       H      0.561866500000     0.615505000000     0.688133500000     0          
Cu1      Cu     0.891940000000     0.500000000000     0.608060000000     0          
O1       O      0.906085000000     0.524520000000     0.628985000000     0          
O2       O      0.921600000000     0.500000000000     0.578400000000     0          
C1       C      0.897795000000     0.534960000000     0.647795000000     0          
C2       C      0.909440000000     0.558110000000     0.659440000000     0          
C3       C      0.898620000000     0.568925000000     0.681075000000     0          
H1       H      0.884495000000     0.561866500000     0.688133500000     0          
O1       O      0.871015000000     0.975480000000     0.593915000000     0          
C1       C      0.852205000000     0.965040000000     0.602205000000     0          
C2       C      0.840560000000     0.941890000000     0.590560000000     0          
C3       C      0.818925000000     0.931075000000     0.601380000000     0          
H1       H      0.811866500000     0.938133500000     0.615505000000     0          
O1       O      0.871015000000     0.524520000000     0.906085000000     0          
C1       C      0.852205000000     0.534960000000     0.897795000000     0          
C2       C      0.840560000000     0.558110000000     0.909440000000     0          
C3       C      0.818925000000     0.568925000000     0.898620000000     0          
H1       H      0.811866500000     0.561866500000     0.884495000000     0          
O1       O      0.975480000000     0.871015000000     0.906085000000     0          
C1       C      0.965040000000     0.852205000000     0.897795000000     0          
C2       C      0.941890000000     0.840560000000     0.909440000000     0          
C3       C      0.931075000000     0.818925000000     0.898620000000     0          
H1       H      0.938133500000     0.811866500000     0.884495000000     0          
O1       O      0.628985000000     0.975480000000     0.906085000000     0          
C1       C      0.647795000000     0.965040000000     0.897795000000     0          
C2       C      0.659440000000     0.941890000000     0.909440000000     0          
C3       C      0.681075000000     0.931075000000     0.898620000000     0          
H1       H      0.688133500000     0.938133500000     0.884495000000     0          
O1       O      0.524520000000     0.628985000000     0.906085000000     0          
C1       C      0.534960000000     0.647795000000     0.897795000000     0          
C2       C      0.558110000000     0.659440000000     0.909440000000     0          
C3       C      0.568925000000     0.681075000000     0.898620000000     0          
H1       H      0.561866500000     0.688133500000     0.884495000000     0          
O1       O      0.628985000000     0.524520000000     0.593915000000     0          
C1       C      0.647795000000     0.534960000000     0.602205000000     0          
C2       C      0.659440000000     0.558110000000     0.590560000000     0          
C3       C      0.681075000000     0.568925000000     0.601380000000     0          
H1       H      0.688133500000     0.561866500000     0.615505000000     0          
O1       O      0.975480000000     0.628985000000     0.593915000000     0          
C1       C      0.965040000000     0.647795000000     0.602205000000     0          
C2       C      0.941890000000     0.659440000000     0.590560000000     0          
C3       C      0.931075000000     0.681075000000     0.601380000000     0          
H1       H      0.938133500000     0.688133500000     0.615505000000     0          
O1       O      0.524520000000     0.871015000000     0.593915000000     0          
C1       C      0.534960000000     0.852205000000     0.602205000000     0          
C2       C      0.558110000000     0.840560000000     0.590560000000     0          
C3       C      0.568925000000     0.818925000000     0.601380000000     0          
H1       H      0.561866500000     0.811866500000     0.615505000000     0          
O1       O      0.906085000000     0.628985000000     0.524520000000     0          
C1       C      0.897795000000     0.647795000000     0.534960000000     0          
C2       C      0.909440000000     0.659440000000     0.558110000000     0          
C3       C      0.898620000000     0.681075000000     0.568925000000     0          
H1       H      0.884495000000     0.688133500000     0.561866500000     0          
O1       O      0.871015000000     0.906085000000     0.524520000000     0          
C1       C      0.852205000000     0.897795000000     0.534960000000     0          
C2       C      0.840560000000     0.909440000000     0.558110000000     0          
C3       C      0.818925000000     0.898620000000     0.568925000000     0          
H1       H      0.811866500000     0.884495000000     0.561866500000     0          
O1       O      0.593915000000     0.871015000000     0.524520000000     0          
C1       C      0.602205000000     0.852205000000     0.534960000000     0          
C2       C      0.590560000000     0.840560000000     0.558110000000     0          
C3       C      0.601380000000     0.818925000000     0.568925000000     0          
H1       H      0.615505000000     0.811866500000     0.561866500000     0          
O1       O      0.628985000000     0.593915000000     0.524520000000     0          
C1       C      0.647795000000     0.602205000000     0.534960000000     0          
C2       C      0.659440000000     0.590560000000     0.558110000000     0          
C3       C      0.681075000000     0.601380000000     0.568925000000     0          
H1       H      0.688133500000     0.615505000000     0.561866500000     0          
O1       O      0.906085000000     0.871015000000     0.975480000000     0          
C1       C      0.897795000000     0.852205000000     0.965040000000     0          
C2       C      0.909440000000     0.840560000000     0.941890000000     0          
C3       C      0.898620000000     0.818925000000     0.931075000000     0          
H1       H      0.884495000000     0.811866500000     0.938133500000     0          
O1       O      0.628985000000     0.906085000000     0.975480000000     0          
C1       C      0.647795000000     0.897795000000     0.965040000000     0          
C2       C      0.659440000000     0.909440000000     0.941890000000     0          
C3       C      0.681075000000     0.898620000000     0.931075000000     0          
H1       H      0.688133500000     0.884495000000     0.938133500000     0          
O1       O      0.593915000000     0.628985000000     0.975480000000     0          
C1       C      0.602205000000     0.647795000000     0.965040000000     0          
C2       C      0.590560000000     0.659440000000     0.941890000000     0          
C3       C      0.601380000000     0.681075000000     0.931075000000     0          
H1       H      0.615505000000     0.688133500000     0.938133500000     0          
O1       O      0.871015000000     0.593915000000     0.975480000000     0          
C1       C      0.852205000000     0.602205000000     0.965040000000     0          
C2       C      0.840560000000     0.590560000000     0.941890000000     0          
C3       C      0.818925000000     0.601380000000     0.931075000000     0          
H1       H      0.811866500000     0.615505000000     0.938133500000     0          
O1       O      0.524520000000     0.906085000000     0.628985000000     0          
C1       C      0.534960000000     0.897795000000     0.647795000000     0          
C2       C      0.558110000000     0.909440000000     0.659440000000     0          
C3       C      0.568925000000     0.898620000000     0.681075000000     0          
H1       H      0.561866500000     0.884495000000     0.688133500000     0          
O1       O      0.593915000000     0.524520000000     0.628985000000     0          
C1       C      0.602205000000     0.534960000000     0.647795000000     0          
C2       C      0.590560000000     0.558110000000     0.659440000000     0          
C3       C      0.601380000000     0.568925000000     0.681075000000     0          
H1       H      0.615505000000     0.561866500000     0.688133500000     0          
O1       O      0.975480000000     0.593915000000     0.628985000000     0          
C1       C      0.965040000000     0.602205000000     0.647795000000     0          
C2       C      0.941890000000     0.590560000000     0.659440000000     0          
C3       C      0.931075000000     0.601380000000     0.681075000000     0          
H1       H      0.938133500000     0.615505000000     0.688133500000     0          
O1       O      0.906085000000     0.975480000000     0.628985000000     0          
C1       C      0.897795000000     0.965040000000     0.647795000000     0          
C2       C      0.909440000000     0.941890000000     0.659440000000     0          
C3       C      0.898620000000     0.931075000000     0.681075000000     0          
H1       H      0.884495000000     0.938133500000     0.688133500000     0          
O1       O      0.524520000000     0.593915000000     0.871015000000     0          
C1       C      0.534960000000     0.602205000000     0.852205000000     0          
C2       C      0.558110000000     0.590560000000     0.840560000000     0          
C3       C      0.568925000000     0.601380000000     0.818925000000     0          
H1       H      0.561866500000     0.615505000000     0.811866500000     0          
O1       O      0.906085000000     0.524520000000     0.871015000000     0          
C1       C      0.897795000000     0.534960000000     0.852205000000     0          
C2       C      0.909440000000     0.558110000000     0.840560000000     0          
C3       C      0.898620000000     0.568925000000     0.818925000000     0          
H1       H      0.884495000000     0.561866500000     0.811866500000     0          
O1       O      0.975480000000     0.906085000000     0.871015000000     0          
C1       C      0.965040000000     0.897795000000     0.852205000000     0          
C2       C      0.941890000000     0.909440000000     0.840560000000     0          
C3       C      0.931075000000     0.898620000000     0.818925000000     0          
H1       H      0.938133500000     0.884495000000     0.811866500000     0          
O1       O      0.593915000000     0.975480000000     0.871015000000     0          
C1       C      0.602205000000     0.965040000000     0.852205000000     0          
C2       C      0.590560000000     0.941890000000     0.840560000000     0          
C3       C      0.601380000000     0.931075000000     0.818925000000     0          
H1       H      0.615505000000     0.938133500000     0.811866500000     0          
O1       O      0.628985000000     0.524520000000     0.906085000000     0          
C1       C      0.647795000000     0.534960000000     0.897795000000     0          
C2       C      0.659440000000     0.558110000000     0.909440000000     0          
C3       C      0.681075000000     0.568925000000     0.898620000000     0          
H1       H      0.688133500000     0.561866500000     0.884495000000     0          
O1       O      0.628985000000     0.975480000000     0.593915000000     0          
C1       C      0.647795000000     0.965040000000     0.602205000000     0          
C2       C      0.659440000000     0.941890000000     0.590560000000     0          
C3       C      0.681075000000     0.931075000000     0.601380000000     0          
H1       H      0.688133500000     0.938133500000     0.615505000000     0          
O1       O      0.524520000000     0.628985000000     0.593915000000     0          
C1       C      0.534960000000     0.647795000000     0.602205000000     0          
C2       C      0.558110000000     0.659440000000     0.590560000000     0          
C3       C      0.568925000000     0.681075000000     0.601380000000     0          
H1       H      0.561866500000     0.688133500000     0.615505000000     0          
O1       O      0.871015000000     0.524520000000     0.593915000000     0          
C1       C      0.852205000000     0.534960000000     0.602205000000     0          
C2       C      0.840560000000     0.558110000000     0.590560000000     0          
C3       C      0.818925000000     0.568925000000     0.601380000000     0          
H1       H      0.811866500000     0.561866500000     0.615505000000     0          
O1       O      0.975480000000     0.871015000000     0.593915000000     0          
C1       C      0.965040000000     0.852205000000     0.602205000000     0          
C2       C      0.941890000000     0.840560000000     0.590560000000     0          
C3       C      0.931075000000     0.818925000000     0.601380000000     0          
H1       H      0.938133500000     0.811866500000     0.615505000000     0          
O1       O      0.871015000000     0.975480000000     0.906085000000     0          
C1       C      0.852205000000     0.965040000000     0.897795000000     0          
C2       C      0.840560000000     0.941890000000     0.909440000000     0          
C3       C      0.818925000000     0.931075000000     0.898620000000     0          
H1       H      0.811866500000     0.938133500000     0.884495000000     0          
O1       O      0.524520000000     0.871015000000     0.906085000000     0          
C1       C      0.534960000000     0.852205000000     0.897795000000     0          
C2       C      0.558110000000     0.840560000000     0.909440000000     0          
C3       C      0.568925000000     0.818925000000     0.898620000000     0          
H1       H      0.561866500000     0.811866500000     0.884495000000     0          
O1       O      0.975480000000     0.628985000000     0.906085000000     0          
C1       C      0.965040000000     0.647795000000     0.897795000000     0          
C2       C      0.941890000000     0.659440000000     0.909440000000     0          
C3       C      0.931075000000     0.681075000000     0.898620000000     0          
H1       H      0.938133500000     0.688133500000     0.884495000000     0          
Cu1      Cu     0.608060000000     0.641940000000     0.750000000000     0          
O1       O      0.593915000000     0.621015000000     0.725480000000     0          
O2       O      0.578400000000     0.671600000000     0.750000000000     0          
C1       C      0.602205000000     0.602205000000     0.715040000000     0          
C2       C      0.590560000000     0.590560000000     0.691890000000     0          
C1s      C      0.579350000000     0.829350000000     0.829350000000     0          
C2s      C      0.690450000000     0.500000000000     0.940450000000     0          
Cu1      Cu     0.608060000000     0.858060000000     0.750000000000     0          
O1       O      0.628985000000     0.843915000000     0.725480000000     0          
O2       O      0.578400000000     0.828400000000     0.750000000000     0          
C1       C      0.647795000000     0.852205000000     0.715040000000     0          
C2       C      0.659440000000     0.840560000000     0.691890000000     0          
C3       C      0.681075000000     0.851380000000     0.681075000000     0          
H1       H      0.688133500000     0.865505000000     0.688133500000     0          
C1s      C      0.920650000000     0.829350000000     0.829350000000     0          
C2s      C      0.750000000000     0.940450000000     0.940450000000     0          
Cu1      Cu     0.891940000000     0.858060000000     0.750000000000     0          
O1       O      0.906085000000     0.878985000000     0.725480000000     0          
O2       O      0.921600000000     0.828400000000     0.750000000000     0          
C1       C      0.897795000000     0.897795000000     0.715040000000     0          
C2       C      0.909440000000     0.909440000000     0.691890000000     0          
C1s      C      0.920650000000     0.670650000000     0.829350000000     0          
C2s      C      0.809550000000     0.500000000000     0.940450000000     0          
Cu1      Cu     0.891940000000     0.641940000000     0.750000000000     0          
O1       O      0.871015000000     0.656085000000     0.725480000000     0          
O2       O      0.921600000000     0.671600000000     0.750000000000     0          
C1       C      0.852205000000     0.647795000000     0.715040000000     0          
C2       C      0.840560000000     0.659440000000     0.691890000000     0          
C3       C      0.818925000000     0.648620000000     0.681075000000     0          
H1       H      0.811866500000     0.634495000000     0.688133500000     0          
C1s      C      0.579350000000     0.670650000000     0.829350000000     0          
C2s      C      0.750000000000     0.559550000000     0.940450000000     0          
O1       O      0.593915000000     0.878985000000     0.774520000000     0          
C1       C      0.602205000000     0.897795000000     0.784960000000     0          
C2       C      0.590560000000     0.909440000000     0.808110000000     0          
C1s      C      0.579350000000     0.670650000000     0.670650000000     0          
C2s      C      0.690450000000     0.500000000000     0.559550000000     0          
O1       O      0.871015000000     0.843915000000     0.774520000000     0          
C1       C      0.852205000000     0.852205000000     0.784960000000     0          
C2       C      0.840560000000     0.840560000000     0.808110000000     0          
C3       C      0.818925000000     0.851380000000     0.818925000000     0          
H1       H      0.811866500000     0.865505000000     0.811866500000     0          
C1s      C      0.579350000000     0.829350000000     0.670650000000     0          
C2s      C      0.750000000000     0.940450000000     0.559550000000     0          
O1       O      0.906085000000     0.621015000000     0.774520000000     0          
C1       C      0.897795000000     0.602205000000     0.784960000000     0          
C2       C      0.909440000000     0.590560000000     0.808110000000     0          
C1s      C      0.920650000000     0.829350000000     0.670650000000     0          
C2s      C      0.809550000000     0.500000000000     0.559550000000     0          
O1       O      0.628985000000     0.656085000000     0.774520000000     0          
C1       C      0.647795000000     0.647795000000     0.784960000000     0          
C2       C      0.659440000000     0.659440000000     0.808110000000     0          
C3       C      0.681075000000     0.648620000000     0.818925000000     0          
H1       H      0.688133500000     0.634495000000     0.811866500000     0          
C1s      C      0.920650000000     0.670650000000     0.670650000000     0          
C2s      C      0.750000000000     0.559550000000     0.559550000000     0          
Cu1      Cu     0.500000000000     0.858060000000     0.641940000000     0          
O1       O      0.975480000000     0.843915000000     0.621015000000     0          
O2       O      0.500000000000     0.828400000000     0.671600000000     0          
C3       C      0.931075000000     0.851380000000     0.568925000000     0          
H1       H      0.938133500000     0.865505000000     0.561866500000     0          
C2s      C      0.690450000000     0.940450000000     0.500000000000     0          
Cu1      Cu     0.891940000000     0.750000000000     0.641940000000     0          
O1       O      0.906085000000     0.725480000000     0.621015000000     0          
O2       O      0.921600000000     0.750000000000     0.671600000000     0          
C1       C      0.897795000000     0.715040000000     0.602205000000     0          
C2       C      0.909440000000     0.691890000000     0.590560000000     0          
C2s      C      0.809550000000     0.940450000000     0.500000000000     0          
Cu1      Cu     0.500000000000     0.641940000000     0.641940000000     0          
O1       O      0.524520000000     0.656085000000     0.621015000000     0          
O2       O      0.500000000000     0.671600000000     0.671600000000     0          
C3       C      0.568925000000     0.648620000000     0.568925000000     0          
H1       H      0.561866500000     0.634495000000     0.561866500000     0          
C2s      C      0.809550000000     0.559550000000     0.500000000000     0          
Cu1      Cu     0.608060000000     0.750000000000     0.641940000000     0          
O1       O      0.593915000000     0.774520000000     0.621015000000     0          
O2       O      0.578400000000     0.750000000000     0.671600000000     0          
C1       C      0.602205000000     0.784960000000     0.602205000000     0          
C2       C      0.590560000000     0.808110000000     0.590560000000     0          
C2s      C      0.690450000000     0.559550000000     0.500000000000     0          
Cu1      Cu     0.500000000000     0.641940000000     0.858060000000     0          
O1       O      0.975480000000     0.656085000000     0.878985000000     0          
O2       O      0.500000000000     0.671600000000     0.828400000000     0          
C3       C      0.931075000000     0.648620000000     0.931075000000     0          
H1       H      0.938133500000     0.634495000000     0.938133500000     0          
Cu1      Cu     0.608060000000     0.750000000000     0.858060000000     0          
O1       O      0.593915000000     0.725480000000     0.878985000000     0          
O2       O      0.578400000000     0.750000000000     0.828400000000     0          
C1       C      0.602205000000     0.715040000000     0.897795000000     0          
C2       C      0.590560000000     0.691890000000     0.909440000000     0          
Cu1      Cu     0.500000000000     0.858060000000     0.858060000000     0          
O1       O      0.524520000000     0.843915000000     0.878985000000     0          
O2       O      0.500000000000     0.828400000000     0.828400000000     0          
C3       C      0.568925000000     0.851380000000     0.931075000000     0          
H1       H      0.561866500000     0.865505000000     0.938133500000     0          
Cu1      Cu     0.891940000000     0.750000000000     0.858060000000     0          
O1       O      0.906085000000     0.774520000000     0.878985000000     0          
O2       O      0.921600000000     0.750000000000     0.828400000000     0          
C1       C      0.897795000000     0.784960000000     0.897795000000     0          
C2       C      0.909440000000     0.808110000000     0.909440000000     0          
O1       O      0.871015000000     0.725480000000     0.843915000000     0          
C1       C      0.852205000000     0.715040000000     0.852205000000     0          
C2       C      0.840560000000     0.691890000000     0.840560000000     0          
C3       C      0.818925000000     0.681075000000     0.851380000000     0          
H1       H      0.811866500000     0.688133500000     0.865505000000     0          
O1       O      0.871015000000     0.774520000000     0.656085000000     0          
C1       C      0.852205000000     0.784960000000     0.647795000000     0          
C2       C      0.840560000000     0.808110000000     0.659440000000     0          
C3       C      0.818925000000     0.818925000000     0.648620000000     0          
H1       H      0.811866500000     0.811866500000     0.634495000000     0          
O1       O      0.975480000000     0.621015000000     0.656085000000     0          
C3       C      0.931075000000     0.568925000000     0.648620000000     0          
H1       H      0.938133500000     0.561866500000     0.634495000000     0          
O1       O      0.628985000000     0.725480000000     0.656085000000     0          
C1       C      0.647795000000     0.715040000000     0.647795000000     0          
C2       C      0.659440000000     0.691890000000     0.659440000000     0          
C3       C      0.681075000000     0.681075000000     0.648620000000     0          
H1       H      0.688133500000     0.688133500000     0.634495000000     0          
O1       O      0.524520000000     0.878985000000     0.656085000000     0          
C3       C      0.568925000000     0.931075000000     0.648620000000     0          
H1       H      0.561866500000     0.938133500000     0.634495000000     0          
O1       O      0.628985000000     0.774520000000     0.843915000000     0          
C1       C      0.647795000000     0.784960000000     0.852205000000     0          
C2       C      0.659440000000     0.808110000000     0.840560000000     0          
C3       C      0.681075000000     0.818925000000     0.851380000000     0          
H1       H      0.688133500000     0.811866500000     0.865505000000     0          
O1       O      0.975480000000     0.878985000000     0.843915000000     0          
C3       C      0.931075000000     0.931075000000     0.851380000000     0          
H1       H      0.938133500000     0.938133500000     0.865505000000     0          
O1       O      0.524520000000     0.621015000000     0.843915000000     0          
C3       C      0.568925000000     0.568925000000     0.851380000000     0          
H1       H      0.561866500000     0.561866500000     0.865505000000     0          
O1       O      0.906085000000     0.878985000000     0.774520000000     0          
C1       C      0.897795000000     0.897795000000     0.784960000000     0          
C2       C      0.909440000000     0.909440000000     0.808110000000     0          
O1       O      0.871015000000     0.656085000000     0.774520000000     0          
C1       C      0.852205000000     0.647795000000     0.784960000000     0          
C2       C      0.840560000000     0.659440000000     0.808110000000     0          
C3       C      0.818925000000     0.648620000000     0.818925000000     0          
H1       H      0.811866500000     0.634495000000     0.811866500000     0          
O1       O      0.593915000000     0.621015000000     0.774520000000     0          
C1       C      0.602205000000     0.602205000000     0.784960000000     0          
C2       C      0.590560000000     0.590560000000     0.808110000000     0          
O1       O      0.628985000000     0.843915000000     0.774520000000     0          
C1       C      0.647795000000     0.852205000000     0.784960000000     0          
C2       C      0.659440000000     0.840560000000     0.808110000000     0          
C3       C      0.681075000000     0.851380000000     0.818925000000     0          
H1       H      0.688133500000     0.865505000000     0.811866500000     0          
O1       O      0.906085000000     0.621015000000     0.725480000000     0          
C1       C      0.897795000000     0.602205000000     0.715040000000     0          
C2       C      0.909440000000     0.590560000000     0.691890000000     0          
O1       O      0.628985000000     0.656085000000     0.725480000000     0          
C1       C      0.647795000000     0.647795000000     0.715040000000     0          
C2       C      0.659440000000     0.659440000000     0.691890000000     0          
C3       C      0.681075000000     0.648620000000     0.681075000000     0          
H1       H      0.688133500000     0.634495000000     0.688133500000     0          
O1       O      0.593915000000     0.878985000000     0.725480000000     0          
C1       C      0.602205000000     0.897795000000     0.715040000000     0          
C2       C      0.590560000000     0.909440000000     0.691890000000     0          
O1       O      0.871015000000     0.843915000000     0.725480000000     0          
C1       C      0.852205000000     0.852205000000     0.715040000000     0          
C2       C      0.840560000000     0.840560000000     0.691890000000     0          
C3       C      0.818925000000     0.851380000000     0.681075000000     0          
H1       H      0.811866500000     0.865505000000     0.688133500000     0          
O1       O      0.524520000000     0.656085000000     0.878985000000     0          
C3       C      0.568925000000     0.648620000000     0.931075000000     0          
H1       H      0.561866500000     0.634495000000     0.938133500000     0          
O1       O      0.593915000000     0.774520000000     0.878985000000     0          
C1       C      0.602205000000     0.784960000000     0.897795000000     0          
C2       C      0.590560000000     0.808110000000     0.909440000000     0          
O1       O      0.975480000000     0.843915000000     0.878985000000     0          
C3       C      0.931075000000     0.851380000000     0.931075000000     0          
H1       H      0.938133500000     0.865505000000     0.938133500000     0          
O1       O      0.906085000000     0.725480000000     0.878985000000     0          
C1       C      0.897795000000     0.715040000000     0.897795000000     0          
C2       C      0.909440000000     0.691890000000     0.909440000000     0          
O1       O      0.524520000000     0.843915000000     0.621015000000     0          
C3       C      0.568925000000     0.851380000000     0.568925000000     0          
H1       H      0.561866500000     0.865505000000     0.561866500000     0          
O1       O      0.906085000000     0.774520000000     0.621015000000     0          
C1       C      0.897795000000     0.784960000000     0.602205000000     0          
C2       C      0.909440000000     0.808110000000     0.590560000000     0          
O1       O      0.975480000000     0.656085000000     0.621015000000     0          
C3       C      0.931075000000     0.648620000000     0.568925000000     0          
H1       H      0.938133500000     0.634495000000     0.561866500000     0          
O1       O      0.593915000000     0.725480000000     0.621015000000     0          
C1       C      0.602205000000     0.715040000000     0.602205000000     0          
C2       C      0.590560000000     0.691890000000     0.590560000000     0          
O1       O      0.628985000000     0.774520000000     0.656085000000     0          
C1       C      0.647795000000     0.784960000000     0.647795000000     0          
C2       C      0.659440000000     0.808110000000     0.659440000000     0          
C3       C      0.681075000000     0.818925000000     0.648620000000     0          
H1       H      0.688133500000     0.811866500000     0.634495000000     0          
O1       O      0.628985000000     0.725480000000     0.843915000000     0          
C1       C      0.647795000000     0.715040000000     0.852205000000     0          
C2       C      0.659440000000     0.691890000000     0.840560000000     0          
C3       C      0.681075000000     0.681075000000     0.851380000000     0          
H1       H      0.688133500000     0.688133500000     0.865505000000     0          
O1       O      0.524520000000     0.878985000000     0.843915000000     0          
C3       C      0.568925000000     0.931075000000     0.851380000000     0          
H1       H      0.561866500000     0.938133500000     0.865505000000     0          
O1       O      0.871015000000     0.774520000000     0.843915000000     0          
C1       C      0.852205000000     0.784960000000     0.852205000000     0          
C2       C      0.840560000000     0.808110000000     0.840560000000     0          
C3       C      0.818925000000     0.818925000000     0.851380000000     0          
H1       H      0.811866500000     0.811866500000     0.865505000000     0          
O1       O      0.975480000000     0.621015000000     0.843915000000     0          
C3       C      0.931075000000     0.568925000000     0.851380000000     0          
H1       H      0.938133500000     0.561866500000     0.865505000000     0          
O1       O      0.871015000000     0.725480000000     0.656085000000     0          
C1       C      0.852205000000     0.715040000000     0.647795000000     0          
C2       C      0.840560000000     0.691890000000     0.659440000000     0          
C3       C      0.818925000000     0.681075000000     0.648620000000     0          
H1       H      0.811866500000     0.688133500000     0.634495000000     0          
O1       O      0.524520000000     0.621015000000     0.656085000000     0          
C3       C      0.568925000000     0.568925000000     0.648620000000     0          
H1       H      0.561866500000     0.561866500000     0.634495000000     0          
O1       O      0.975480000000     0.878985000000     0.656085000000     0          
C3       C      0.931075000000     0.931075000000     0.648620000000     0          
H1       H      0.938133500000     0.938133500000     0.634495000000     0          
Cu1      Cu     0.858060000000     0.891940000000     0.750000000000     0          
O1       O      0.843915000000     0.871015000000     0.725480000000     0          
O2       O      0.828400000000     0.921600000000     0.750000000000     0          
C3       C      0.851380000000     0.818925000000     0.681075000000     0          
H1       H      0.865505000000     0.811866500000     0.688133500000     0          
C1s      C      0.829350000000     0.579350000000     0.829350000000     0          
C2s      C      0.940450000000     0.750000000000     0.940450000000     0          
Cu1      Cu     0.858060000000     0.608060000000     0.750000000000     0          
O1       O      0.878985000000     0.593915000000     0.725480000000     0          
O2       O      0.828400000000     0.578400000000     0.750000000000     0          
C1s      C      0.670650000000     0.579350000000     0.829350000000     0          
C2s      C      0.500000000000     0.690450000000     0.940450000000     0          
Cu1      Cu     0.641940000000     0.608060000000     0.750000000000     0          
O1       O      0.656085000000     0.628985000000     0.725480000000     0          
O2       O      0.671600000000     0.578400000000     0.750000000000     0          
C3       C      0.648620000000     0.681075000000     0.681075000000     0          
H1       H      0.634495000000     0.688133500000     0.688133500000     0          
C1s      C      0.670650000000     0.920650000000     0.829350000000     0          
C2s      C      0.559550000000     0.750000000000     0.940450000000     0          
Cu1      Cu     0.641940000000     0.891940000000     0.750000000000     0          
O1       O      0.621015000000     0.906085000000     0.725480000000     0          
O2       O      0.671600000000     0.921600000000     0.750000000000     0          
C1s      C      0.829350000000     0.920650000000     0.829350000000     0          
C2s      C      0.500000000000     0.809550000000     0.940450000000     0          
O1       O      0.843915000000     0.628985000000     0.774520000000     0          
C3       C      0.851380000000     0.681075000000     0.818925000000     0          
H1       H      0.865505000000     0.688133500000     0.811866500000     0          
C1s      C      0.829350000000     0.920650000000     0.670650000000     0          
C2s      C      0.940450000000     0.750000000000     0.559550000000     0          
O1       O      0.621015000000     0.593915000000     0.774520000000     0          
C1s      C      0.829350000000     0.579350000000     0.670650000000     0          
C2s      C      0.500000000000     0.690450000000     0.559550000000     0          
O1       O      0.656085000000     0.871015000000     0.774520000000     0          
C3       C      0.648620000000     0.818925000000     0.818925000000     0          
H1       H      0.634495000000     0.811866500000     0.811866500000     0          
C1s      C      0.670650000000     0.579350000000     0.670650000000     0          
C2s      C      0.559550000000     0.750000000000     0.559550000000     0          
O1       O      0.878985000000     0.906085000000     0.774520000000     0          
C1s      C      0.670650000000     0.920650000000     0.670650000000     0          
C2s      C      0.500000000000     0.809550000000     0.559550000000     0          
Cu1      Cu     0.750000000000     0.608060000000     0.641940000000     0          
O1       O      0.725480000000     0.593915000000     0.621015000000     0          
O2       O      0.750000000000     0.578400000000     0.671600000000     0          
C1       C      0.715040000000     0.602205000000     0.602205000000     0          
C2       C      0.691890000000     0.590560000000     0.590560000000     0          
C2s      C      0.940450000000     0.690450000000     0.500000000000     0          
Cu1      Cu     0.641940000000     0.500000000000     0.641940000000     0          
O1       O      0.656085000000     0.975480000000     0.621015000000     0          
O2       O      0.671600000000     0.500000000000     0.671600000000     0          
C3       C      0.648620000000     0.931075000000     0.568925000000     0          
H1       H      0.634495000000     0.938133500000     0.561866500000     0          
C2s      C      0.559550000000     0.690450000000     0.500000000000     0          
Cu1      Cu     0.750000000000     0.891940000000     0.641940000000     0          
O1       O      0.774520000000     0.906085000000     0.621015000000     0          
O2       O      0.750000000000     0.921600000000     0.671600000000     0          
C1       C      0.784960000000     0.897795000000     0.602205000000     0          
C2       C      0.808110000000     0.909440000000     0.590560000000     0          
C2s      C      0.559550000000     0.809550000000     0.500000000000     0          
Cu1      Cu     0.858060000000     0.500000000000     0.641940000000     0          
O1       O      0.843915000000     0.524520000000     0.621015000000     0          
O2       O      0.828400000000     0.500000000000     0.671600000000     0          
C3       C      0.851380000000     0.568925000000     0.568925000000     0          
H1       H      0.865505000000     0.561866500000     0.561866500000     0          
C2s      C      0.940450000000     0.809550000000     0.500000000000     0          
Cu1      Cu     0.750000000000     0.891940000000     0.858060000000     0          
O1       O      0.725480000000     0.906085000000     0.878985000000     0          
O2       O      0.750000000000     0.921600000000     0.828400000000     0          
C1       C      0.715040000000     0.897795000000     0.897795000000     0          
C2       C      0.691890000000     0.909440000000     0.909440000000     0          
Cu1      Cu     0.858060000000     0.500000000000     0.858060000000     0          
O1       O      0.843915000000     0.975480000000     0.878985000000     0          
O2       O      0.828400000000     0.500000000000     0.828400000000     0          
C3       C      0.851380000000     0.931075000000     0.931075000000     0          
H1       H      0.865505000000     0.938133500000     0.938133500000     0          
Cu1      Cu     0.750000000000     0.608060000000     0.858060000000     0          
O1       O      0.774520000000     0.593915000000     0.878985000000     0          
O2       O      0.750000000000     0.578400000000     0.828400000000     0          
C1       C      0.784960000000     0.602205000000     0.897795000000     0          
C2       C      0.808110000000     0.590560000000     0.909440000000     0          
Cu1      Cu     0.641940000000     0.500000000000     0.858060000000     0          
O1       O      0.656085000000     0.524520000000     0.878985000000     0          
O2       O      0.671600000000     0.500000000000     0.828400000000     0          
C3       C      0.648620000000     0.568925000000     0.931075000000     0          
H1       H      0.634495000000     0.561866500000     0.938133500000     0          
O1       O      0.621015000000     0.975480000000     0.843915000000     0          
O1       O      0.621015000000     0.524520000000     0.656085000000     0          
O1       O      0.725480000000     0.871015000000     0.656085000000     0          
C1       C      0.715040000000     0.852205000000     0.647795000000     0          
C2       C      0.691890000000     0.840560000000     0.659440000000     0          
O1       O      0.878985000000     0.975480000000     0.656085000000     0          
O1       O      0.774520000000     0.628985000000     0.656085000000     0          
C1       C      0.784960000000     0.647795000000     0.647795000000     0          
C2       C      0.808110000000     0.659440000000     0.659440000000     0          
O1       O      0.878985000000     0.524520000000     0.843915000000     0          
O1       O      0.725480000000     0.628985000000     0.843915000000     0          
C1       C      0.715040000000     0.647795000000     0.852205000000     0          
C2       C      0.691890000000     0.659440000000     0.840560000000     0          
O1       O      0.774520000000     0.871015000000     0.843915000000     0          
C1       C      0.784960000000     0.852205000000     0.852205000000     0          
C2       C      0.808110000000     0.840560000000     0.840560000000     0          
O1       O      0.656085000000     0.628985000000     0.774520000000     0          
C3       C      0.648620000000     0.681075000000     0.818925000000     0          
H1       H      0.634495000000     0.688133500000     0.811866500000     0          
O1       O      0.621015000000     0.906085000000     0.774520000000     0          
O1       O      0.843915000000     0.871015000000     0.774520000000     0          
C3       C      0.851380000000     0.818925000000     0.818925000000     0          
H1       H      0.865505000000     0.811866500000     0.811866500000     0          
O1       O      0.878985000000     0.593915000000     0.774520000000     0          
O1       O      0.656085000000     0.871015000000     0.725480000000     0          
C3       C      0.648620000000     0.818925000000     0.681075000000     0          
H1       H      0.634495000000     0.811866500000     0.688133500000     0          
O1       O      0.878985000000     0.906085000000     0.725480000000     0          
O1       O      0.843915000000     0.628985000000     0.725480000000     0          
C3       C      0.851380000000     0.681075000000     0.681075000000     0          
H1       H      0.865505000000     0.688133500000     0.688133500000     0          
O1       O      0.621015000000     0.593915000000     0.725480000000     0          
O1       O      0.774520000000     0.906085000000     0.878985000000     0          
C1       C      0.784960000000     0.897795000000     0.897795000000     0          
C2       C      0.808110000000     0.909440000000     0.909440000000     0          
O1       O      0.843915000000     0.524520000000     0.878985000000     0          
C3       C      0.851380000000     0.568925000000     0.931075000000     0          
H1       H      0.865505000000     0.561866500000     0.938133500000     0          
O1       O      0.725480000000     0.593915000000     0.878985000000     0          
C1       C      0.715040000000     0.602205000000     0.897795000000     0          
C2       C      0.691890000000     0.590560000000     0.909440000000     0          
O1       O      0.656085000000     0.975480000000     0.878985000000     0          
C3       C      0.648620000000     0.931075000000     0.931075000000     0          
H1       H      0.634495000000     0.938133500000     0.938133500000     0          
O1       O      0.774520000000     0.593915000000     0.621015000000     0          
C1       C      0.784960000000     0.602205000000     0.602205000000     0          
C2       C      0.808110000000     0.590560000000     0.590560000000     0          
O1       O      0.656085000000     0.524520000000     0.621015000000     0          
C3       C      0.648620000000     0.568925000000     0.568925000000     0          
H1       H      0.634495000000     0.561866500000     0.561866500000     0          
O1       O      0.725480000000     0.906085000000     0.621015000000     0          
C1       C      0.715040000000     0.897795000000     0.602205000000     0          
C2       C      0.691890000000     0.909440000000     0.590560000000     0          
O1       O      0.843915000000     0.975480000000     0.621015000000     0          
C3       C      0.851380000000     0.931075000000     0.568925000000     0          
H1       H      0.865505000000     0.938133500000     0.561866500000     0          
O1       O      0.878985000000     0.524520000000     0.656085000000     0          
O1       O      0.878985000000     0.975480000000     0.843915000000     0          
O1       O      0.774520000000     0.628985000000     0.843915000000     0          
C1       C      0.784960000000     0.647795000000     0.852205000000     0          
C2       C      0.808110000000     0.659440000000     0.840560000000     0          
O1       O      0.621015000000     0.524520000000     0.843915000000     0          
O1       O      0.725480000000     0.871015000000     0.843915000000     0          
C1       C      0.715040000000     0.852205000000     0.852205000000     0          
C2       C      0.691890000000     0.840560000000     0.840560000000     0          
O1       O      0.621015000000     0.975480000000     0.656085000000     0          
O1       O      0.774520000000     0.871015000000     0.656085000000     0          
C1       C      0.784960000000     0.852205000000     0.647795000000     0          
C2       C      0.808110000000     0.840560000000     0.659440000000     0          
O1       O      0.725480000000     0.628985000000     0.656085000000     0          
C1       C      0.715040000000     0.647795000000     0.647795000000     0          
C2       C      0.691890000000     0.659440000000     0.659440000000     0          
Cu1      Cu     0.858060000000     0.641940000000     0.500000000000     0          
O1       O      0.843915000000     0.621015000000     0.975480000000     0          
O2       O      0.828400000000     0.671600000000     0.500000000000     0          
C1s      C      0.829350000000     0.829350000000     0.579350000000     0          
C2s      C      0.940450000000     0.500000000000     0.690450000000     0          
Cu1      Cu     0.858060000000     0.858060000000     0.500000000000     0          
O1       O      0.878985000000     0.843915000000     0.975480000000     0          
O2       O      0.828400000000     0.828400000000     0.500000000000     0          
C1s      C      0.670650000000     0.829350000000     0.579350000000     0          
C2s      C      0.500000000000     0.940450000000     0.690450000000     0          
Cu1      Cu     0.641940000000     0.858060000000     0.500000000000     0          
O1       O      0.656085000000     0.878985000000     0.975480000000     0          
O2       O      0.671600000000     0.828400000000     0.500000000000     0          
C1s      C      0.670650000000     0.670650000000     0.579350000000     0          
C2s      C      0.559550000000     0.500000000000     0.690450000000     0          
Cu1      Cu     0.641940000000     0.641940000000     0.500000000000     0          
O1       O      0.621015000000     0.656085000000     0.975480000000     0          
O2       O      0.671600000000     0.671600000000     0.500000000000     0          
C1s      C      0.829350000000     0.670650000000     0.579350000000     0          
C2s      C      0.500000000000     0.559550000000     0.690450000000     0          
O1       O      0.843915000000     0.878985000000     0.524520000000     0          
C1s      C      0.829350000000     0.670650000000     0.920650000000     0          
C2s      C      0.940450000000     0.500000000000     0.809550000000     0          
O1       O      0.621015000000     0.843915000000     0.524520000000     0          
C1s      C      0.829350000000     0.829350000000     0.920650000000     0          
C2s      C      0.500000000000     0.940450000000     0.809550000000     0          
O1       O      0.656085000000     0.621015000000     0.524520000000     0          
C1s      C      0.670650000000     0.829350000000     0.920650000000     0          
C2s      C      0.559550000000     0.500000000000     0.809550000000     0          
O1       O      0.878985000000     0.656085000000     0.524520000000     0          
C1s      C      0.670650000000     0.670650000000     0.920650000000     0          
C2s      C      0.500000000000     0.559550000000     0.809550000000     0          
Cu1      Cu     0.750000000000     0.858060000000     0.891940000000     0          
O1       O      0.725480000000     0.843915000000     0.871015000000     0          
O2       O      0.750000000000     0.828400000000     0.921600000000     0          
C2s      C      0.940450000000     0.940450000000     0.750000000000     0          
Cu1      Cu     0.641940000000     0.750000000000     0.891940000000     0          
O1       O      0.656085000000     0.725480000000     0.871015000000     0          
O2       O      0.671600000000     0.750000000000     0.921600000000     0          
C2s      C      0.559550000000     0.940450000000     0.750000000000     0          
Cu1      Cu     0.750000000000     0.641940000000     0.891940000000     0          
O1       O      0.774520000000     0.656085000000     0.871015000000     0          
O2       O      0.750000000000     0.671600000000     0.921600000000     0          
C2s      C      0.559550000000     0.559550000000     0.750000000000     0          
Cu1      Cu     0.858060000000     0.750000000000     0.891940000000     0          
O1       O      0.843915000000     0.774520000000     0.871015000000     0          
O2       O      0.828400000000     0.750000000000     0.921600000000     0          
C2s      C      0.940450000000     0.559550000000     0.750000000000     0          
Cu1      Cu     0.750000000000     0.641940000000     0.608060000000     0          
O1       O      0.725480000000     0.656085000000     0.628985000000     0          
O2       O      0.750000000000     0.671600000000     0.578400000000     0          
Cu1      Cu     0.858060000000     0.750000000000     0.608060000000     0          
O1       O      0.843915000000     0.725480000000     0.628985000000     0          
O2       O      0.828400000000     0.750000000000     0.578400000000     0          
Cu1      Cu     0.750000000000     0.858060000000     0.608060000000     0          
O1       O      0.774520000000     0.843915000000     0.628985000000     0          
O2       O      0.750000000000     0.828400000000     0.578400000000     0          
Cu1      Cu     0.641940000000     0.750000000000     0.608060000000     0          
O1       O      0.656085000000     0.774520000000     0.628985000000     0          
O2       O      0.671600000000     0.750000000000     0.578400000000     0          
O1       O      0.621015000000     0.725480000000     0.593915000000     0          
O1       O      0.621015000000     0.774520000000     0.906085000000     0          
O1       O      0.725480000000     0.621015000000     0.906085000000     0          
O1       O      0.878985000000     0.725480000000     0.906085000000     0          
O1       O      0.774520000000     0.878985000000     0.906085000000     0          
O1       O      0.878985000000     0.774520000000     0.593915000000     0          
O1       O      0.725480000000     0.878985000000     0.593915000000     0          
O1       O      0.774520000000     0.621015000000     0.593915000000     0          
O1       O      0.656085000000     0.878985000000     0.524520000000     0          
O1       O      0.621015000000     0.656085000000     0.524520000000     0          
O1       O      0.843915000000     0.621015000000     0.524520000000     0          
O1       O      0.878985000000     0.843915000000     0.524520000000     0          
O1       O      0.656085000000     0.621015000000     0.975480000000     0          
O1       O      0.878985000000     0.656085000000     0.975480000000     0          
O1       O      0.843915000000     0.878985000000     0.975480000000     0          
O1       O      0.621015000000     0.843915000000     0.975480000000     0          
O1       O      0.774520000000     0.656085000000     0.628985000000     0          
O1       O      0.843915000000     0.774520000000     0.628985000000     0          
O1       O      0.725480000000     0.843915000000     0.628985000000     0          
O1       O      0.656085000000     0.725480000000     0.628985000000     0          
O1       O      0.774520000000     0.843915000000     0.871015000000     0          
O1       O      0.656085000000     0.774520000000     0.871015000000     0          
O1       O      0.725480000000     0.656085000000     0.871015000000     0          
O1       O      0.843915000000     0.725480000000     0.871015000000     0          
O1       O      0.878985000000     0.774520000000     0.906085000000     0          
O1       O      0.878985000000     0.725480000000     0.593915000000     0          
O1       O      0.774520000000     0.878985000000     0.593915000000     0          
O1       O      0.621015000000     0.774520000000     0.593915000000     0          
O1       O      0.725480000000     0.621015000000     0.593915000000     0          
O1       O      0.621015000000     0.725480000000     0.906085000000     0          
O1       O      0.774520000000     0.621015000000     0.906085000000     0          
O1       O      0.725480000000     0.878985000000     0.906085000000     0          


