data_IRMOF-1

_audit_creation_method RASPA-1.0
_audit_creation_date 2021-4-21
_audit_author_name 'hiuki'

_citation_author_name        'M. Eddaoudi, J. Kim, N. Rosi, D. Vodak, J. Wachter, M. O. Keeffe, and O.M. Yaghi'
_citation_title              'Systematic design of pore size and functionality in isoreticular MOFs and their application in methane storage'
_citation_journal_abbrev     'Science'
_citation_journal_volume     295
_citation_page_first         469
_citation_page_last          472
_citation_year               2002

_cell_length_a    51.664
_cell_length_b    51.664
_cell_length_c    51.664
_cell_angle_alpha 90
_cell_angle_beta  90
_cell_angle_gamma 90
_cell_volume      137900

_symmetry_cell_setting          cubic
_symmetry_space_group_name_Hall 'P 1'
_symmetry_space_group_name_H-M  'P 1'
_symmetry_Int_Tables_number     1

_symmetry_equiv_pos_as_xyz 'x,y,z'

loop_
_atom_site_label
_atom_site_type_symbol
_atom_site_fract_x
_atom_site_fract_y
_atom_site_fract_z
_atom_site_charge
Zn1      Zn     0.146700000000     0.103300000000     0.103300000000     0          
O1       O      0.125000000000     0.125000000000     0.125000000000     0          
O2       O      0.140950000000     0.109050000000     0.067000000000     0          
C1       C      0.125000000000     0.125000000000     0.055650000000     0          
C2       C      0.125000000000     0.125000000000     0.026900000000     0          
C3       C      0.141450000000     0.108550000000     0.013450000000     0          
H1       H      0.152450000000     0.097550000000     0.022400000000     0          
Zn1      Zn     0.396700000000     0.146700000000     0.103300000000     0          
O1       O      0.375000000000     0.125000000000     0.125000000000     0          
O2       O      0.390950000000     0.140950000000     0.067000000000     0          
C1       C      0.375000000000     0.125000000000     0.055650000000     0          
C2       C      0.375000000000     0.125000000000     0.026900000000     0          
C3       C      0.391450000000     0.141450000000     0.013450000000     0          
H1       H      0.402450000000     0.152450000000     0.022400000000     0          
Zn1      Zn     0.353300000000     0.396700000000     0.103300000000     0          
O1       O      0.375000000000     0.375000000000     0.125000000000     0          
O2       O      0.359050000000     0.390950000000     0.067000000000     0          
C1       C      0.375000000000     0.375000000000     0.055650000000     0          
C2       C      0.375000000000     0.375000000000     0.026900000000     0          
C3       C      0.358550000000     0.391450000000     0.013450000000     0          
H1       H      0.347550000000     0.402450000000     0.022400000000     0          
Zn1      Zn     0.103300000000     0.353300000000     0.103300000000     0          
O1       O      0.125000000000     0.375000000000     0.125000000000     0          
O2       O      0.109050000000     0.359050000000     0.067000000000     0          
C1       C      0.125000000000     0.375000000000     0.055650000000     0          
C2       C      0.125000000000     0.375000000000     0.026900000000     0          
C3       C      0.108550000000     0.358550000000     0.013450000000     0          
H1       H      0.097550000000     0.347550000000     0.022400000000     0          
Zn1      Zn     0.146700000000     0.396700000000     0.396700000000     0          
O1       O      0.125000000000     0.375000000000     0.375000000000     0          
O2       O      0.140950000000     0.390950000000     0.433000000000     0          
C1       C      0.125000000000     0.375000000000     0.444350000000     0          
C2       C      0.125000000000     0.375000000000     0.473100000000     0          
C3       C      0.141450000000     0.391450000000     0.486550000000     0          
H1       H      0.152450000000     0.402450000000     0.477600000000     0          
Zn1      Zn     0.103300000000     0.146700000000     0.396700000000     0          
O1       O      0.125000000000     0.125000000000     0.375000000000     0          
O2       O      0.109050000000     0.140950000000     0.433000000000     0          
C1       C      0.125000000000     0.125000000000     0.444350000000     0          
C2       C      0.125000000000     0.125000000000     0.473100000000     0          
C3       C      0.108550000000     0.141450000000     0.486550000000     0          
H1       H      0.097550000000     0.152450000000     0.477600000000     0          
Zn1      Zn     0.353300000000     0.103300000000     0.396700000000     0          
O1       O      0.375000000000     0.125000000000     0.375000000000     0          
O2       O      0.359050000000     0.109050000000     0.433000000000     0          
C1       C      0.375000000000     0.125000000000     0.444350000000     0          
C2       C      0.375000000000     0.125000000000     0.473100000000     0          
C3       C      0.358550000000     0.108550000000     0.486550000000     0          
H1       H      0.347550000000     0.097550000000     0.477600000000     0          
Zn1      Zn     0.396700000000     0.353300000000     0.396700000000     0          
O1       O      0.375000000000     0.375000000000     0.375000000000     0          
O2       O      0.390950000000     0.359050000000     0.433000000000     0          
C1       C      0.375000000000     0.375000000000     0.444350000000     0          
C2       C      0.375000000000     0.375000000000     0.473100000000     0          
C3       C      0.391450000000     0.358550000000     0.486550000000     0          
H1       H      0.402450000000     0.347550000000     0.477600000000     0          
Zn1      Zn     0.103300000000     0.146700000000     0.103300000000     0          
O2       O      0.067000000000     0.140950000000     0.109050000000     0          
C1       C      0.055650000000     0.125000000000     0.125000000000     0          
C2       C      0.026900000000     0.125000000000     0.125000000000     0          
C3       C      0.013450000000     0.141450000000     0.108550000000     0          
H1       H      0.022400000000     0.152450000000     0.097550000000     0          
Zn1      Zn     0.353300000000     0.103300000000     0.103300000000     0          
O2       O      0.359050000000     0.067000000000     0.109050000000     0          
C1       C      0.375000000000     0.055650000000     0.125000000000     0          
C2       C      0.375000000000     0.026900000000     0.125000000000     0          
C3       C      0.358550000000     0.013450000000     0.108550000000     0          
H1       H      0.347550000000     0.022400000000     0.097550000000     0          
Zn1      Zn     0.396700000000     0.353300000000     0.103300000000     0          
O2       O      0.433000000000     0.359050000000     0.109050000000     0          
C1       C      0.444350000000     0.375000000000     0.125000000000     0          
C2       C      0.473100000000     0.375000000000     0.125000000000     0          
C3       C      0.486550000000     0.358550000000     0.108550000000     0          
H1       H      0.477600000000     0.347550000000     0.097550000000     0          
Zn1      Zn     0.146700000000     0.396700000000     0.103300000000     0          
O2       O      0.140950000000     0.433000000000     0.109050000000     0          
C1       C      0.125000000000     0.444350000000     0.125000000000     0          
C2       C      0.125000000000     0.473100000000     0.125000000000     0          
C3       C      0.141450000000     0.486550000000     0.108550000000     0          
H1       H      0.152450000000     0.477600000000     0.097550000000     0          
Zn1      Zn     0.103300000000     0.353300000000     0.396700000000     0          
O2       O      0.067000000000     0.359050000000     0.390950000000     0          
C1       C      0.055650000000     0.375000000000     0.375000000000     0          
C2       C      0.026900000000     0.375000000000     0.375000000000     0          
C3       C      0.013450000000     0.358550000000     0.391450000000     0          
H1       H      0.022400000000     0.347550000000     0.402450000000     0          
Zn1      Zn     0.146700000000     0.103300000000     0.396700000000     0          
O2       O      0.140950000000     0.067000000000     0.390950000000     0          
C1       C      0.125000000000     0.055650000000     0.375000000000     0          
C2       C      0.125000000000     0.026900000000     0.375000000000     0          
C3       C      0.141450000000     0.013450000000     0.391450000000     0          
H1       H      0.152450000000     0.022400000000     0.402450000000     0          
Zn1      Zn     0.396700000000     0.146700000000     0.396700000000     0          
O2       O      0.433000000000     0.140950000000     0.390950000000     0          
C1       C      0.444350000000     0.125000000000     0.375000000000     0          
C2       C      0.473100000000     0.125000000000     0.375000000000     0          
C3       C      0.486550000000     0.141450000000     0.391450000000     0          
H1       H      0.477600000000     0.152450000000     0.402450000000     0          
Zn1      Zn     0.353300000000     0.396700000000     0.396700000000     0          
O2       O      0.359050000000     0.433000000000     0.390950000000     0          
C1       C      0.375000000000     0.444350000000     0.375000000000     0          
C2       C      0.375000000000     0.473100000000     0.375000000000     0          
C3       C      0.358550000000     0.486550000000     0.391450000000     0          
H1       H      0.347550000000     0.477600000000     0.402450000000     0          
Zn1      Zn     0.103300000000     0.103300000000     0.146700000000     0          
O2       O      0.109050000000     0.067000000000     0.140950000000     0          
C1       C      0.125000000000     0.055650000000     0.125000000000     0          
C2       C      0.125000000000     0.026900000000     0.125000000000     0          
C3       C      0.108550000000     0.013450000000     0.141450000000     0          
H1       H      0.097550000000     0.022400000000     0.152450000000     0          
Zn1      Zn     0.103300000000     0.396700000000     0.353300000000     0          
O2       O      0.109050000000     0.433000000000     0.359050000000     0          
C1       C      0.125000000000     0.444350000000     0.375000000000     0          
C2       C      0.125000000000     0.473100000000     0.375000000000     0          
C3       C      0.108550000000     0.486550000000     0.358550000000     0          
H1       H      0.097550000000     0.477600000000     0.347550000000     0          
Zn1      Zn     0.103300000000     0.103300000000     0.353300000000     0          
O2       O      0.067000000000     0.109050000000     0.359050000000     0          
C1       C      0.055650000000     0.125000000000     0.375000000000     0          
C2       C      0.026900000000     0.125000000000     0.375000000000     0          
C3       C      0.013450000000     0.108550000000     0.358550000000     0          
H1       H      0.022400000000     0.097550000000     0.347550000000     0          
Zn1      Zn     0.396700000000     0.103300000000     0.353300000000     0          
O2       O      0.390950000000     0.067000000000     0.359050000000     0          
C1       C      0.375000000000     0.055650000000     0.375000000000     0          
C2       C      0.375000000000     0.026900000000     0.375000000000     0          
C3       C      0.391450000000     0.013450000000     0.358550000000     0          
H1       H      0.402450000000     0.022400000000     0.347550000000     0          
Zn1      Zn     0.396700000000     0.396700000000     0.353300000000     0          
O2       O      0.433000000000     0.390950000000     0.359050000000     0          
C1       C      0.444350000000     0.375000000000     0.375000000000     0          
C2       C      0.473100000000     0.375000000000     0.375000000000     0          
C3       C      0.486550000000     0.391450000000     0.358550000000     0          
H1       H      0.477600000000     0.402450000000     0.347550000000     0          
Zn1      Zn     0.396700000000     0.396700000000     0.146700000000     0          
O2       O      0.390950000000     0.433000000000     0.140950000000     0          
C1       C      0.375000000000     0.444350000000     0.125000000000     0          
C2       C      0.375000000000     0.473100000000     0.125000000000     0          
C3       C      0.391450000000     0.486550000000     0.141450000000     0          
H1       H      0.402450000000     0.477600000000     0.152450000000     0          
Zn1      Zn     0.103300000000     0.396700000000     0.146700000000     0          
O2       O      0.067000000000     0.390950000000     0.140950000000     0          
C1       C      0.055650000000     0.375000000000     0.125000000000     0          
C2       C      0.026900000000     0.375000000000     0.125000000000     0          
C3       C      0.013450000000     0.391450000000     0.141450000000     0          
H1       H      0.022400000000     0.402450000000     0.152450000000     0          
Zn1      Zn     0.396700000000     0.103300000000     0.146700000000     0          
O2       O      0.433000000000     0.109050000000     0.140950000000     0          
C1       C      0.444350000000     0.125000000000     0.125000000000     0          
C2       C      0.473100000000     0.125000000000     0.125000000000     0          
C3       C      0.486550000000     0.108550000000     0.141450000000     0          
H1       H      0.477600000000     0.097550000000     0.152450000000     0          
O2       O      0.359050000000     0.390950000000     0.433000000000     0          
C3       C      0.358550000000     0.391450000000     0.486550000000     0          
H1       H      0.347550000000     0.402450000000     0.477600000000     0          
O2       O      0.109050000000     0.359050000000     0.433000000000     0          
C3       C      0.108550000000     0.358550000000     0.486550000000     0          
H1       H      0.097550000000     0.347550000000     0.477600000000     0          
O2       O      0.140950000000     0.109050000000     0.433000000000     0          
C3       C      0.141450000000     0.108550000000     0.486550000000     0          
H1       H      0.152450000000     0.097550000000     0.477600000000     0          
O2       O      0.390950000000     0.140950000000     0.433000000000     0          
C3       C      0.391450000000     0.141450000000     0.486550000000     0          
H1       H      0.402450000000     0.152450000000     0.477600000000     0          
O2       O      0.359050000000     0.109050000000     0.067000000000     0          
C3       C      0.358550000000     0.108550000000     0.013450000000     0          
H1       H      0.347550000000     0.097550000000     0.022400000000     0          
O2       O      0.390950000000     0.359050000000     0.067000000000     0          
C3       C      0.391450000000     0.358550000000     0.013450000000     0          
H1       H      0.402450000000     0.347550000000     0.022400000000     0          
O2       O      0.140950000000     0.390950000000     0.067000000000     0          
C3       C      0.141450000000     0.391450000000     0.013450000000     0          
H1       H      0.152450000000     0.402450000000     0.022400000000     0          
O2       O      0.109050000000     0.140950000000     0.067000000000     0          
C3       C      0.108550000000     0.141450000000     0.013450000000     0          
H1       H      0.097550000000     0.152450000000     0.022400000000     0          
O2       O      0.433000000000     0.359050000000     0.390950000000     0          
C3       C      0.486550000000     0.358550000000     0.391450000000     0          
H1       H      0.477600000000     0.347550000000     0.402450000000     0          
O2       O      0.140950000000     0.433000000000     0.390950000000     0          
C3       C      0.141450000000     0.486550000000     0.391450000000     0          
H1       H      0.152450000000     0.477600000000     0.402450000000     0          
O2       O      0.067000000000     0.140950000000     0.390950000000     0          
C3       C      0.013450000000     0.141450000000     0.391450000000     0          
H1       H      0.022400000000     0.152450000000     0.402450000000     0          
O2       O      0.359050000000     0.067000000000     0.390950000000     0          
C3       C      0.358550000000     0.013450000000     0.391450000000     0          
H1       H      0.347550000000     0.022400000000     0.402450000000     0          
O2       O      0.433000000000     0.140950000000     0.109050000000     0          
C3       C      0.486550000000     0.141450000000     0.108550000000     0          
H1       H      0.477600000000     0.152450000000     0.097550000000     0          
O2       O      0.359050000000     0.433000000000     0.109050000000     0          
C3       C      0.358550000000     0.486550000000     0.108550000000     0          
H1       H      0.347550000000     0.477600000000     0.097550000000     0          
O2       O      0.067000000000     0.359050000000     0.109050000000     0          
C3       C      0.013450000000     0.358550000000     0.108550000000     0          
H1       H      0.022400000000     0.347550000000     0.097550000000     0          
O2       O      0.140950000000     0.067000000000     0.109050000000     0          
C3       C      0.141450000000     0.013450000000     0.108550000000     0          
H1       H      0.152450000000     0.022400000000     0.097550000000     0          
O2       O      0.390950000000     0.433000000000     0.359050000000     0          
C3       C      0.391450000000     0.486550000000     0.358550000000     0          
H1       H      0.402450000000     0.477600000000     0.347550000000     0          
O2       O      0.390950000000     0.067000000000     0.140950000000     0          
C3       C      0.391450000000     0.013450000000     0.141450000000     0          
H1       H      0.402450000000     0.022400000000     0.152450000000     0          
O2       O      0.433000000000     0.390950000000     0.140950000000     0          
C3       C      0.486550000000     0.391450000000     0.141450000000     0          
H1       H      0.477600000000     0.402450000000     0.152450000000     0          
O2       O      0.109050000000     0.433000000000     0.140950000000     0          
C3       C      0.108550000000     0.486550000000     0.141450000000     0          
H1       H      0.097550000000     0.477600000000     0.152450000000     0          
O2       O      0.067000000000     0.109050000000     0.140950000000     0          
C3       C      0.013450000000     0.108550000000     0.141450000000     0          
H1       H      0.022400000000     0.097550000000     0.152450000000     0          
O2       O      0.109050000000     0.067000000000     0.359050000000     0          
C3       C      0.108550000000     0.013450000000     0.358550000000     0          
H1       H      0.097550000000     0.022400000000     0.347550000000     0          
O2       O      0.433000000000     0.109050000000     0.359050000000     0          
C3       C      0.486550000000     0.108550000000     0.358550000000     0          
H1       H      0.477600000000     0.097550000000     0.347550000000     0          
O2       O      0.067000000000     0.390950000000     0.359050000000     0          
C3       C      0.013450000000     0.391450000000     0.358550000000     0          
H1       H      0.022400000000     0.402450000000     0.347550000000     0          
Zn1      Zn     0.146700000000     0.353300000000     0.353300000000     0          
O2       O      0.140950000000     0.359050000000     0.317000000000     0          
C1       C      0.125000000000     0.375000000000     0.305650000000     0          
C2       C      0.125000000000     0.375000000000     0.276900000000     0          
C3       C      0.141450000000     0.358550000000     0.263450000000     0          
H1       H      0.152450000000     0.347550000000     0.272400000000     0          
O2       O      0.390950000000     0.390950000000     0.317000000000     0          
C1       C      0.375000000000     0.375000000000     0.305650000000     0          
C2       C      0.375000000000     0.375000000000     0.276900000000     0          
C3       C      0.391450000000     0.391450000000     0.263450000000     0          
H1       H      0.402450000000     0.402450000000     0.272400000000     0          
Zn1      Zn     0.353300000000     0.146700000000     0.353300000000     0          
O2       O      0.359050000000     0.140950000000     0.317000000000     0          
C1       C      0.375000000000     0.125000000000     0.305650000000     0          
C2       C      0.375000000000     0.125000000000     0.276900000000     0          
C3       C      0.358550000000     0.141450000000     0.263450000000     0          
H1       H      0.347550000000     0.152450000000     0.272400000000     0          
O2       O      0.109050000000     0.109050000000     0.317000000000     0          
C1       C      0.125000000000     0.125000000000     0.305650000000     0          
C2       C      0.125000000000     0.125000000000     0.276900000000     0          
C3       C      0.108550000000     0.108550000000     0.263450000000     0          
H1       H      0.097550000000     0.097550000000     0.272400000000     0          
Zn1      Zn     0.146700000000     0.146700000000     0.146700000000     0          
O2       O      0.140950000000     0.140950000000     0.183000000000     0          
C1       C      0.125000000000     0.125000000000     0.194350000000     0          
C2       C      0.125000000000     0.125000000000     0.223100000000     0          
C3       C      0.141450000000     0.141450000000     0.236550000000     0          
H1       H      0.152450000000     0.152450000000     0.227600000000     0          
O2       O      0.109050000000     0.390950000000     0.183000000000     0          
C1       C      0.125000000000     0.375000000000     0.194350000000     0          
C2       C      0.125000000000     0.375000000000     0.223100000000     0          
C3       C      0.108550000000     0.391450000000     0.236550000000     0          
H1       H      0.097550000000     0.402450000000     0.227600000000     0          
Zn1      Zn     0.353300000000     0.353300000000     0.146700000000     0          
O2       O      0.359050000000     0.359050000000     0.183000000000     0          
C1       C      0.375000000000     0.375000000000     0.194350000000     0          
C2       C      0.375000000000     0.375000000000     0.223100000000     0          
C3       C      0.358550000000     0.358550000000     0.236550000000     0          
H1       H      0.347550000000     0.347550000000     0.227600000000     0          
O2       O      0.390950000000     0.109050000000     0.183000000000     0          
C1       C      0.375000000000     0.125000000000     0.194350000000     0          
C2       C      0.375000000000     0.125000000000     0.223100000000     0          
C3       C      0.391450000000     0.108550000000     0.236550000000     0          
H1       H      0.402450000000     0.097550000000     0.227600000000     0          
Zn1      Zn     0.353300000000     0.353300000000     0.353300000000     0          
O2       O      0.359050000000     0.317000000000     0.359050000000     0          
C1       C      0.375000000000     0.305650000000     0.375000000000     0          
C2       C      0.375000000000     0.276900000000     0.375000000000     0          
C3       C      0.358550000000     0.263450000000     0.358550000000     0          
H1       H      0.347550000000     0.272400000000     0.347550000000     0          
Zn1      Zn     0.146700000000     0.146700000000     0.353300000000     0          
O2       O      0.140950000000     0.183000000000     0.359050000000     0          
C1       C      0.125000000000     0.194350000000     0.375000000000     0          
C2       C      0.125000000000     0.223100000000     0.375000000000     0          
C3       C      0.141450000000     0.236550000000     0.358550000000     0          
H1       H      0.152450000000     0.227600000000     0.347550000000     0          
Zn1      Zn     0.146700000000     0.353300000000     0.146700000000     0          
O2       O      0.140950000000     0.317000000000     0.140950000000     0          
C1       C      0.125000000000     0.305650000000     0.125000000000     0          
C2       C      0.125000000000     0.276900000000     0.125000000000     0          
C3       C      0.141450000000     0.263450000000     0.141450000000     0          
H1       H      0.152450000000     0.272400000000     0.152450000000     0          
Zn1      Zn     0.353300000000     0.146700000000     0.146700000000     0          
O2       O      0.359050000000     0.183000000000     0.140950000000     0          
C1       C      0.375000000000     0.194350000000     0.125000000000     0          
C2       C      0.375000000000     0.223100000000     0.125000000000     0          
C3       C      0.358550000000     0.236550000000     0.141450000000     0          
H1       H      0.347550000000     0.227600000000     0.152450000000     0          
O2       O      0.109050000000     0.317000000000     0.390950000000     0          
C1       C      0.125000000000     0.305650000000     0.375000000000     0          
C2       C      0.125000000000     0.276900000000     0.375000000000     0          
C3       C      0.108550000000     0.263450000000     0.391450000000     0          
H1       H      0.097550000000     0.272400000000     0.402450000000     0          
O2       O      0.109050000000     0.183000000000     0.109050000000     0          
C1       C      0.125000000000     0.194350000000     0.125000000000     0          
C2       C      0.125000000000     0.223100000000     0.125000000000     0          
C3       C      0.108550000000     0.236550000000     0.108550000000     0          
H1       H      0.097550000000     0.227600000000     0.097550000000     0          
O2       O      0.390950000000     0.317000000000     0.109050000000     0          
C1       C      0.375000000000     0.305650000000     0.125000000000     0          
C2       C      0.375000000000     0.276900000000     0.125000000000     0          
C3       C      0.391450000000     0.263450000000     0.108550000000     0          
H1       H      0.402450000000     0.272400000000     0.097550000000     0          
O2       O      0.390950000000     0.183000000000     0.390950000000     0          
C1       C      0.375000000000     0.194350000000     0.375000000000     0          
C2       C      0.375000000000     0.223100000000     0.375000000000     0          
C3       C      0.391450000000     0.236550000000     0.391450000000     0          
H1       H      0.402450000000     0.227600000000     0.402450000000     0          
O2       O      0.359050000000     0.140950000000     0.183000000000     0          
C3       C      0.358550000000     0.141450000000     0.236550000000     0          
H1       H      0.347550000000     0.152450000000     0.227600000000     0          
O2       O      0.109050000000     0.109050000000     0.183000000000     0          
C3       C      0.108550000000     0.108550000000     0.236550000000     0          
H1       H      0.097550000000     0.097550000000     0.227600000000     0          
O2       O      0.140950000000     0.359050000000     0.183000000000     0          
C3       C      0.141450000000     0.358550000000     0.236550000000     0          
H1       H      0.152450000000     0.347550000000     0.227600000000     0          
O2       O      0.390950000000     0.390950000000     0.183000000000     0          
C3       C      0.391450000000     0.391450000000     0.236550000000     0          
H1       H      0.402450000000     0.402450000000     0.227600000000     0          
O2       O      0.359050000000     0.359050000000     0.317000000000     0          
C3       C      0.358550000000     0.358550000000     0.263450000000     0          
H1       H      0.347550000000     0.347550000000     0.272400000000     0          
O2       O      0.390950000000     0.109050000000     0.317000000000     0          
C3       C      0.391450000000     0.108550000000     0.263450000000     0          
H1       H      0.402450000000     0.097550000000     0.272400000000     0          
O2       O      0.140950000000     0.140950000000     0.317000000000     0          
C3       C      0.141450000000     0.141450000000     0.263450000000     0          
H1       H      0.152450000000     0.152450000000     0.272400000000     0          
O2       O      0.109050000000     0.390950000000     0.317000000000     0          
C3       C      0.108550000000     0.391450000000     0.263450000000     0          
H1       H      0.097550000000     0.402450000000     0.272400000000     0          
O2       O      0.140950000000     0.183000000000     0.140950000000     0          
C3       C      0.141450000000     0.236550000000     0.141450000000     0          
H1       H      0.152450000000     0.227600000000     0.152450000000     0          
O2       O      0.359050000000     0.317000000000     0.140950000000     0          
C3       C      0.358550000000     0.263450000000     0.141450000000     0          
H1       H      0.347550000000     0.272400000000     0.152450000000     0          
O2       O      0.359050000000     0.183000000000     0.359050000000     0          
C3       C      0.358550000000     0.236550000000     0.358550000000     0          
H1       H      0.347550000000     0.227600000000     0.347550000000     0          
O2       O      0.140950000000     0.317000000000     0.359050000000     0          
C3       C      0.141450000000     0.263450000000     0.358550000000     0          
H1       H      0.152450000000     0.272400000000     0.347550000000     0          
O2       O      0.390950000000     0.183000000000     0.109050000000     0          
C3       C      0.391450000000     0.236550000000     0.108550000000     0          
H1       H      0.402450000000     0.227600000000     0.097550000000     0          
O2       O      0.390950000000     0.317000000000     0.390950000000     0          
C3       C      0.391450000000     0.263450000000     0.391450000000     0          
H1       H      0.402450000000     0.272400000000     0.402450000000     0          
O2       O      0.109050000000     0.183000000000     0.390950000000     0          
C3       C      0.108550000000     0.236550000000     0.391450000000     0          
H1       H      0.097550000000     0.227600000000     0.402450000000     0          
O2       O      0.109050000000     0.317000000000     0.109050000000     0          
C3       C      0.108550000000     0.263450000000     0.108550000000     0          
H1       H      0.097550000000     0.272400000000     0.097550000000     0          
O2       O      0.317000000000     0.140950000000     0.359050000000     0          
C1       C      0.305650000000     0.125000000000     0.375000000000     0          
C2       C      0.276900000000     0.125000000000     0.375000000000     0          
C3       C      0.263450000000     0.141450000000     0.358550000000     0          
H1       H      0.272400000000     0.152450000000     0.347550000000     0          
O2       O      0.183000000000     0.359050000000     0.359050000000     0          
C1       C      0.194350000000     0.375000000000     0.375000000000     0          
C2       C      0.223100000000     0.375000000000     0.375000000000     0          
C3       C      0.236550000000     0.358550000000     0.358550000000     0          
H1       H      0.227600000000     0.347550000000     0.347550000000     0          
O2       O      0.317000000000     0.359050000000     0.140950000000     0          
C1       C      0.305650000000     0.375000000000     0.125000000000     0          
C2       C      0.276900000000     0.375000000000     0.125000000000     0          
C3       C      0.263450000000     0.358550000000     0.141450000000     0          
H1       H      0.272400000000     0.347550000000     0.152450000000     0          
O2       O      0.183000000000     0.140950000000     0.140950000000     0          
C1       C      0.194350000000     0.125000000000     0.125000000000     0          
C2       C      0.223100000000     0.125000000000     0.125000000000     0          
C3       C      0.236550000000     0.141450000000     0.141450000000     0          
H1       H      0.227600000000     0.152450000000     0.152450000000     0          
O2       O      0.317000000000     0.109050000000     0.109050000000     0          
C1       C      0.305650000000     0.125000000000     0.125000000000     0          
C2       C      0.276900000000     0.125000000000     0.125000000000     0          
C3       C      0.263450000000     0.108550000000     0.108550000000     0          
H1       H      0.272400000000     0.097550000000     0.097550000000     0          
O2       O      0.183000000000     0.390950000000     0.109050000000     0          
C1       C      0.194350000000     0.375000000000     0.125000000000     0          
C2       C      0.223100000000     0.375000000000     0.125000000000     0          
C3       C      0.236550000000     0.391450000000     0.108550000000     0          
H1       H      0.227600000000     0.402450000000     0.097550000000     0          
O2       O      0.317000000000     0.390950000000     0.390950000000     0          
C1       C      0.305650000000     0.375000000000     0.375000000000     0          
C2       C      0.276900000000     0.375000000000     0.375000000000     0          
C3       C      0.263450000000     0.391450000000     0.391450000000     0          
H1       H      0.272400000000     0.402450000000     0.402450000000     0          
O2       O      0.183000000000     0.109050000000     0.390950000000     0          
C1       C      0.194350000000     0.125000000000     0.375000000000     0          
C2       C      0.223100000000     0.125000000000     0.375000000000     0          
C3       C      0.236550000000     0.108550000000     0.391450000000     0          
H1       H      0.227600000000     0.097550000000     0.402450000000     0          
O2       O      0.183000000000     0.359050000000     0.140950000000     0          
C3       C      0.236550000000     0.358550000000     0.141450000000     0          
H1       H      0.227600000000     0.347550000000     0.152450000000     0          
O2       O      0.317000000000     0.140950000000     0.140950000000     0          
C3       C      0.263450000000     0.141450000000     0.141450000000     0          
H1       H      0.272400000000     0.152450000000     0.152450000000     0          
O2       O      0.183000000000     0.140950000000     0.359050000000     0          
C3       C      0.236550000000     0.141450000000     0.358550000000     0          
H1       H      0.227600000000     0.152450000000     0.347550000000     0          
O2       O      0.317000000000     0.359050000000     0.359050000000     0          
C3       C      0.263450000000     0.358550000000     0.358550000000     0          
H1       H      0.272400000000     0.347550000000     0.347550000000     0          
O2       O      0.183000000000     0.390950000000     0.390950000000     0          
C3       C      0.236550000000     0.391450000000     0.391450000000     0          
H1       H      0.227600000000     0.402450000000     0.402450000000     0          
O2       O      0.317000000000     0.109050000000     0.390950000000     0          
C3       C      0.263450000000     0.108550000000     0.391450000000     0          
H1       H      0.272400000000     0.097550000000     0.402450000000     0          
O2       O      0.183000000000     0.109050000000     0.109050000000     0          
C3       C      0.236550000000     0.108550000000     0.108550000000     0          
H1       H      0.227600000000     0.097550000000     0.097550000000     0          
O2       O      0.317000000000     0.390950000000     0.109050000000     0          
C3       C      0.263450000000     0.391450000000     0.108550000000     0          
H1       H      0.272400000000     0.402450000000     0.097550000000     0          
Zn1      Zn     0.146700000000     0.103300000000     0.603300000000     0          
O1       O      0.125000000000     0.125000000000     0.625000000000     0          
O2       O      0.140950000000     0.109050000000     0.567000000000     0          
C1       C      0.125000000000     0.125000000000     0.555650000000     0          
C2       C      0.125000000000     0.125000000000     0.526900000000     0          
C3       C      0.141450000000     0.108550000000     0.513450000000     0          
H1       H      0.152450000000     0.097550000000     0.522400000000     0          
Zn1      Zn     0.396700000000     0.146700000000     0.603300000000     0          
O1       O      0.375000000000     0.125000000000     0.625000000000     0          
O2       O      0.390950000000     0.140950000000     0.567000000000     0          
C1       C      0.375000000000     0.125000000000     0.555650000000     0          
C2       C      0.375000000000     0.125000000000     0.526900000000     0          
C3       C      0.391450000000     0.141450000000     0.513450000000     0          
H1       H      0.402450000000     0.152450000000     0.522400000000     0          
Zn1      Zn     0.353300000000     0.396700000000     0.603300000000     0          
O1       O      0.375000000000     0.375000000000     0.625000000000     0          
O2       O      0.359050000000     0.390950000000     0.567000000000     0          
C1       C      0.375000000000     0.375000000000     0.555650000000     0          
C2       C      0.375000000000     0.375000000000     0.526900000000     0          
C3       C      0.358550000000     0.391450000000     0.513450000000     0          
H1       H      0.347550000000     0.402450000000     0.522400000000     0          
Zn1      Zn     0.103300000000     0.353300000000     0.603300000000     0          
O1       O      0.125000000000     0.375000000000     0.625000000000     0          
O2       O      0.109050000000     0.359050000000     0.567000000000     0          
C1       C      0.125000000000     0.375000000000     0.555650000000     0          
C2       C      0.125000000000     0.375000000000     0.526900000000     0          
C3       C      0.108550000000     0.358550000000     0.513450000000     0          
H1       H      0.097550000000     0.347550000000     0.522400000000     0          
Zn1      Zn     0.146700000000     0.396700000000     0.896700000000     0          
O1       O      0.125000000000     0.375000000000     0.875000000000     0          
O2       O      0.140950000000     0.390950000000     0.933000000000     0          
C1       C      0.125000000000     0.375000000000     0.944350000000     0          
C2       C      0.125000000000     0.375000000000     0.973100000000     0          
C3       C      0.141450000000     0.391450000000     0.986550000000     0          
H1       H      0.152450000000     0.402450000000     0.977600000000     0          
Zn1      Zn     0.103300000000     0.146700000000     0.896700000000     0          
O1       O      0.125000000000     0.125000000000     0.875000000000     0          
O2       O      0.109050000000     0.140950000000     0.933000000000     0          
C1       C      0.125000000000     0.125000000000     0.944350000000     0          
C2       C      0.125000000000     0.125000000000     0.973100000000     0          
C3       C      0.108550000000     0.141450000000     0.986550000000     0          
H1       H      0.097550000000     0.152450000000     0.977600000000     0          
Zn1      Zn     0.353300000000     0.103300000000     0.896700000000     0          
O1       O      0.375000000000     0.125000000000     0.875000000000     0          
O2       O      0.359050000000     0.109050000000     0.933000000000     0          
C1       C      0.375000000000     0.125000000000     0.944350000000     0          
C2       C      0.375000000000     0.125000000000     0.973100000000     0          
C3       C      0.358550000000     0.108550000000     0.986550000000     0          
H1       H      0.347550000000     0.097550000000     0.977600000000     0          
Zn1      Zn     0.396700000000     0.353300000000     0.896700000000     0          
O1       O      0.375000000000     0.375000000000     0.875000000000     0          
O2       O      0.390950000000     0.359050000000     0.933000000000     0          
C1       C      0.375000000000     0.375000000000     0.944350000000     0          
C2       C      0.375000000000     0.375000000000     0.973100000000     0          
C3       C      0.391450000000     0.358550000000     0.986550000000     0          
H1       H      0.402450000000     0.347550000000     0.977600000000     0          
Zn1      Zn     0.103300000000     0.146700000000     0.603300000000     0          
O2       O      0.067000000000     0.140950000000     0.609050000000     0          
C1       C      0.055650000000     0.125000000000     0.625000000000     0          
C2       C      0.026900000000     0.125000000000     0.625000000000     0          
C3       C      0.013450000000     0.141450000000     0.608550000000     0          
H1       H      0.022400000000     0.152450000000     0.597550000000     0          
Zn1      Zn     0.353300000000     0.103300000000     0.603300000000     0          
O2       O      0.359050000000     0.067000000000     0.609050000000     0          
C1       C      0.375000000000     0.055650000000     0.625000000000     0          
C2       C      0.375000000000     0.026900000000     0.625000000000     0          
C3       C      0.358550000000     0.013450000000     0.608550000000     0          
H1       H      0.347550000000     0.022400000000     0.597550000000     0          
Zn1      Zn     0.396700000000     0.353300000000     0.603300000000     0          
O2       O      0.433000000000     0.359050000000     0.609050000000     0          
C1       C      0.444350000000     0.375000000000     0.625000000000     0          
C2       C      0.473100000000     0.375000000000     0.625000000000     0          
C3       C      0.486550000000     0.358550000000     0.608550000000     0          
H1       H      0.477600000000     0.347550000000     0.597550000000     0          
Zn1      Zn     0.146700000000     0.396700000000     0.603300000000     0          
O2       O      0.140950000000     0.433000000000     0.609050000000     0          
C1       C      0.125000000000     0.444350000000     0.625000000000     0          
C2       C      0.125000000000     0.473100000000     0.625000000000     0          
C3       C      0.141450000000     0.486550000000     0.608550000000     0          
H1       H      0.152450000000     0.477600000000     0.597550000000     0          
Zn1      Zn     0.103300000000     0.353300000000     0.896700000000     0          
O2       O      0.067000000000     0.359050000000     0.890950000000     0          
C1       C      0.055650000000     0.375000000000     0.875000000000     0          
C2       C      0.026900000000     0.375000000000     0.875000000000     0          
C3       C      0.013450000000     0.358550000000     0.891450000000     0          
H1       H      0.022400000000     0.347550000000     0.902450000000     0          
Zn1      Zn     0.146700000000     0.103300000000     0.896700000000     0          
O2       O      0.140950000000     0.067000000000     0.890950000000     0          
C1       C      0.125000000000     0.055650000000     0.875000000000     0          
C2       C      0.125000000000     0.026900000000     0.875000000000     0          
C3       C      0.141450000000     0.013450000000     0.891450000000     0          
H1       H      0.152450000000     0.022400000000     0.902450000000     0          
Zn1      Zn     0.396700000000     0.146700000000     0.896700000000     0          
O2       O      0.433000000000     0.140950000000     0.890950000000     0          
C1       C      0.444350000000     0.125000000000     0.875000000000     0          
C2       C      0.473100000000     0.125000000000     0.875000000000     0          
C3       C      0.486550000000     0.141450000000     0.891450000000     0          
H1       H      0.477600000000     0.152450000000     0.902450000000     0          
Zn1      Zn     0.353300000000     0.396700000000     0.896700000000     0          
O2       O      0.359050000000     0.433000000000     0.890950000000     0          
C1       C      0.375000000000     0.444350000000     0.875000000000     0          
C2       C      0.375000000000     0.473100000000     0.875000000000     0          
C3       C      0.358550000000     0.486550000000     0.891450000000     0          
H1       H      0.347550000000     0.477600000000     0.902450000000     0          
Zn1      Zn     0.103300000000     0.103300000000     0.646700000000     0          
O2       O      0.109050000000     0.067000000000     0.640950000000     0          
C1       C      0.125000000000     0.055650000000     0.625000000000     0          
C2       C      0.125000000000     0.026900000000     0.625000000000     0          
C3       C      0.108550000000     0.013450000000     0.641450000000     0          
H1       H      0.097550000000     0.022400000000     0.652450000000     0          
Zn1      Zn     0.103300000000     0.396700000000     0.853300000000     0          
O2       O      0.109050000000     0.433000000000     0.859050000000     0          
C1       C      0.125000000000     0.444350000000     0.875000000000     0          
C2       C      0.125000000000     0.473100000000     0.875000000000     0          
C3       C      0.108550000000     0.486550000000     0.858550000000     0          
H1       H      0.097550000000     0.477600000000     0.847550000000     0          
Zn1      Zn     0.103300000000     0.103300000000     0.853300000000     0          
O2       O      0.067000000000     0.109050000000     0.859050000000     0          
C1       C      0.055650000000     0.125000000000     0.875000000000     0          
C2       C      0.026900000000     0.125000000000     0.875000000000     0          
C3       C      0.013450000000     0.108550000000     0.858550000000     0          
H1       H      0.022400000000     0.097550000000     0.847550000000     0          
Zn1      Zn     0.396700000000     0.103300000000     0.853300000000     0          
O2       O      0.390950000000     0.067000000000     0.859050000000     0          
C1       C      0.375000000000     0.055650000000     0.875000000000     0          
C2       C      0.375000000000     0.026900000000     0.875000000000     0          
C3       C      0.391450000000     0.013450000000     0.858550000000     0          
H1       H      0.402450000000     0.022400000000     0.847550000000     0          
Zn1      Zn     0.396700000000     0.396700000000     0.853300000000     0          
O2       O      0.433000000000     0.390950000000     0.859050000000     0          
C1       C      0.444350000000     0.375000000000     0.875000000000     0          
C2       C      0.473100000000     0.375000000000     0.875000000000     0          
C3       C      0.486550000000     0.391450000000     0.858550000000     0          
H1       H      0.477600000000     0.402450000000     0.847550000000     0          
Zn1      Zn     0.396700000000     0.396700000000     0.646700000000     0          
O2       O      0.390950000000     0.433000000000     0.640950000000     0          
C1       C      0.375000000000     0.444350000000     0.625000000000     0          
C2       C      0.375000000000     0.473100000000     0.625000000000     0          
C3       C      0.391450000000     0.486550000000     0.641450000000     0          
H1       H      0.402450000000     0.477600000000     0.652450000000     0          
Zn1      Zn     0.103300000000     0.396700000000     0.646700000000     0          
O2       O      0.067000000000     0.390950000000     0.640950000000     0          
C1       C      0.055650000000     0.375000000000     0.625000000000     0          
C2       C      0.026900000000     0.375000000000     0.625000000000     0          
C3       C      0.013450000000     0.391450000000     0.641450000000     0          
H1       H      0.022400000000     0.402450000000     0.652450000000     0          
Zn1      Zn     0.396700000000     0.103300000000     0.646700000000     0          
O2       O      0.433000000000     0.109050000000     0.640950000000     0          
C1       C      0.444350000000     0.125000000000     0.625000000000     0          
C2       C      0.473100000000     0.125000000000     0.625000000000     0          
C3       C      0.486550000000     0.108550000000     0.641450000000     0          
H1       H      0.477600000000     0.097550000000     0.652450000000     0          
O2       O      0.359050000000     0.390950000000     0.933000000000     0          
C3       C      0.358550000000     0.391450000000     0.986550000000     0          
H1       H      0.347550000000     0.402450000000     0.977600000000     0          
O2       O      0.109050000000     0.359050000000     0.933000000000     0          
C3       C      0.108550000000     0.358550000000     0.986550000000     0          
H1       H      0.097550000000     0.347550000000     0.977600000000     0          
O2       O      0.140950000000     0.109050000000     0.933000000000     0          
C3       C      0.141450000000     0.108550000000     0.986550000000     0          
H1       H      0.152450000000     0.097550000000     0.977600000000     0          
O2       O      0.390950000000     0.140950000000     0.933000000000     0          
C3       C      0.391450000000     0.141450000000     0.986550000000     0          
H1       H      0.402450000000     0.152450000000     0.977600000000     0          
O2       O      0.359050000000     0.109050000000     0.567000000000     0          
C3       C      0.358550000000     0.108550000000     0.513450000000     0          
H1       H      0.347550000000     0.097550000000     0.522400000000     0          
O2       O      0.390950000000     0.359050000000     0.567000000000     0          
C3       C      0.391450000000     0.358550000000     0.513450000000     0          
H1       H      0.402450000000     0.347550000000     0.522400000000     0          
O2       O      0.140950000000     0.390950000000     0.567000000000     0          
C3       C      0.141450000000     0.391450000000     0.513450000000     0          
H1       H      0.152450000000     0.402450000000     0.522400000000     0          
O2       O      0.109050000000     0.140950000000     0.567000000000     0          
C3       C      0.108550000000     0.141450000000     0.513450000000     0          
H1       H      0.097550000000     0.152450000000     0.522400000000     0          
O2       O      0.433000000000     0.359050000000     0.890950000000     0          
C3       C      0.486550000000     0.358550000000     0.891450000000     0          
H1       H      0.477600000000     0.347550000000     0.902450000000     0          
O2       O      0.140950000000     0.433000000000     0.890950000000     0          
C3       C      0.141450000000     0.486550000000     0.891450000000     0          
H1       H      0.152450000000     0.477600000000     0.902450000000     0          
O2       O      0.067000000000     0.140950000000     0.890950000000     0          
C3       C      0.013450000000     0.141450000000     0.891450000000     0          
H1       H      0.022400000000     0.152450000000     0.902450000000     0          
O2       O      0.359050000000     0.067000000000     0.890950000000     0          
C3       C      0.358550000000     0.013450000000     0.891450000000     0          
H1       H      0.347550000000     0.022400000000     0.902450000000     0          
O2       O      0.433000000000     0.140950000000     0.609050000000     0          
C3       C      0.486550000000     0.141450000000     0.608550000000     0          
H1       H      0.477600000000     0.152450000000     0.597550000000     0          
O2       O      0.359050000000     0.433000000000     0.609050000000     0          
C3       C      0.358550000000     0.486550000000     0.608550000000     0          
H1       H      0.347550000000     0.477600000000     0.597550000000     0          
O2       O      0.067000000000     0.359050000000     0.609050000000     0          
C3       C      0.013450000000     0.358550000000     0.608550000000     0          
H1       H      0.022400000000     0.347550000000     0.597550000000     0          
O2       O      0.140950000000     0.067000000000     0.609050000000     0          
C3       C      0.141450000000     0.013450000000     0.608550000000     0          
H1       H      0.152450000000     0.022400000000     0.597550000000     0          
O2       O      0.390950000000     0.433000000000     0.859050000000     0          
C3       C      0.391450000000     0.486550000000     0.858550000000     0          
H1       H      0.402450000000     0.477600000000     0.847550000000     0          
O2       O      0.390950000000     0.067000000000     0.640950000000     0          
C3       C      0.391450000000     0.013450000000     0.641450000000     0          
H1       H      0.402450000000     0.022400000000     0.652450000000     0          
O2       O      0.433000000000     0.390950000000     0.640950000000     0          
C3       C      0.486550000000     0.391450000000     0.641450000000     0          
H1       H      0.477600000000     0.402450000000     0.652450000000     0          
O2       O      0.109050000000     0.433000000000     0.640950000000     0          
C3       C      0.108550000000     0.486550000000     0.641450000000     0          
H1       H      0.097550000000     0.477600000000     0.652450000000     0          
O2       O      0.067000000000     0.109050000000     0.640950000000     0          
C3       C      0.013450000000     0.108550000000     0.641450000000     0          
H1       H      0.022400000000     0.097550000000     0.652450000000     0          
O2       O      0.109050000000     0.067000000000     0.859050000000     0          
C3       C      0.108550000000     0.013450000000     0.858550000000     0          
H1       H      0.097550000000     0.022400000000     0.847550000000     0          
O2       O      0.433000000000     0.109050000000     0.859050000000     0          
C3       C      0.486550000000     0.108550000000     0.858550000000     0          
H1       H      0.477600000000     0.097550000000     0.847550000000     0          
O2       O      0.067000000000     0.390950000000     0.859050000000     0          
C3       C      0.013450000000     0.391450000000     0.858550000000     0          
H1       H      0.022400000000     0.402450000000     0.847550000000     0          
Zn1      Zn     0.146700000000     0.353300000000     0.853300000000     0          
O2       O      0.140950000000     0.359050000000     0.817000000000     0          
C1       C      0.125000000000     0.375000000000     0.805650000000     0          
C2       C      0.125000000000     0.375000000000     0.776900000000     0          
C3       C      0.141450000000     0.358550000000     0.763450000000     0          
H1       H      0.152450000000     0.347550000000     0.772400000000     0          
O2       O      0.390950000000     0.390950000000     0.817000000000     0          
C1       C      0.375000000000     0.375000000000     0.805650000000     0          
C2       C      0.375000000000     0.375000000000     0.776900000000     0          
C3       C      0.391450000000     0.391450000000     0.763450000000     0          
H1       H      0.402450000000     0.402450000000     0.772400000000     0          
Zn1      Zn     0.353300000000     0.146700000000     0.853300000000     0          
O2       O      0.359050000000     0.140950000000     0.817000000000     0          
C1       C      0.375000000000     0.125000000000     0.805650000000     0          
C2       C      0.375000000000     0.125000000000     0.776900000000     0          
C3       C      0.358550000000     0.141450000000     0.763450000000     0          
H1       H      0.347550000000     0.152450000000     0.772400000000     0          
O2       O      0.109050000000     0.109050000000     0.817000000000     0          
C1       C      0.125000000000     0.125000000000     0.805650000000     0          
C2       C      0.125000000000     0.125000000000     0.776900000000     0          
C3       C      0.108550000000     0.108550000000     0.763450000000     0          
H1       H      0.097550000000     0.097550000000     0.772400000000     0          
Zn1      Zn     0.146700000000     0.146700000000     0.646700000000     0          
O2       O      0.140950000000     0.140950000000     0.683000000000     0          
C1       C      0.125000000000     0.125000000000     0.694350000000     0          
C2       C      0.125000000000     0.125000000000     0.723100000000     0          
C3       C      0.141450000000     0.141450000000     0.736550000000     0          
H1       H      0.152450000000     0.152450000000     0.727600000000     0          
O2       O      0.109050000000     0.390950000000     0.683000000000     0          
C1       C      0.125000000000     0.375000000000     0.694350000000     0          
C2       C      0.125000000000     0.375000000000     0.723100000000     0          
C3       C      0.108550000000     0.391450000000     0.736550000000     0          
H1       H      0.097550000000     0.402450000000     0.727600000000     0          
Zn1      Zn     0.353300000000     0.353300000000     0.646700000000     0          
O2       O      0.359050000000     0.359050000000     0.683000000000     0          
C1       C      0.375000000000     0.375000000000     0.694350000000     0          
C2       C      0.375000000000     0.375000000000     0.723100000000     0          
C3       C      0.358550000000     0.358550000000     0.736550000000     0          
H1       H      0.347550000000     0.347550000000     0.727600000000     0          
O2       O      0.390950000000     0.109050000000     0.683000000000     0          
C1       C      0.375000000000     0.125000000000     0.694350000000     0          
C2       C      0.375000000000     0.125000000000     0.723100000000     0          
C3       C      0.391450000000     0.108550000000     0.736550000000     0          
H1       H      0.402450000000     0.097550000000     0.727600000000     0          
Zn1      Zn     0.353300000000     0.353300000000     0.853300000000     0          
O2       O      0.359050000000     0.317000000000     0.859050000000     0          
C1       C      0.375000000000     0.305650000000     0.875000000000     0          
C2       C      0.375000000000     0.276900000000     0.875000000000     0          
C3       C      0.358550000000     0.263450000000     0.858550000000     0          
H1       H      0.347550000000     0.272400000000     0.847550000000     0          
Zn1      Zn     0.146700000000     0.146700000000     0.853300000000     0          
O2       O      0.140950000000     0.183000000000     0.859050000000     0          
C1       C      0.125000000000     0.194350000000     0.875000000000     0          
C2       C      0.125000000000     0.223100000000     0.875000000000     0          
C3       C      0.141450000000     0.236550000000     0.858550000000     0          
H1       H      0.152450000000     0.227600000000     0.847550000000     0          
Zn1      Zn     0.146700000000     0.353300000000     0.646700000000     0          
O2       O      0.140950000000     0.317000000000     0.640950000000     0          
C1       C      0.125000000000     0.305650000000     0.625000000000     0          
C2       C      0.125000000000     0.276900000000     0.625000000000     0          
C3       C      0.141450000000     0.263450000000     0.641450000000     0          
H1       H      0.152450000000     0.272400000000     0.652450000000     0          
Zn1      Zn     0.353300000000     0.146700000000     0.646700000000     0          
O2       O      0.359050000000     0.183000000000     0.640950000000     0          
C1       C      0.375000000000     0.194350000000     0.625000000000     0          
C2       C      0.375000000000     0.223100000000     0.625000000000     0          
C3       C      0.358550000000     0.236550000000     0.641450000000     0          
H1       H      0.347550000000     0.227600000000     0.652450000000     0          
O2       O      0.109050000000     0.317000000000     0.890950000000     0          
C1       C      0.125000000000     0.305650000000     0.875000000000     0          
C2       C      0.125000000000     0.276900000000     0.875000000000     0          
C3       C      0.108550000000     0.263450000000     0.891450000000     0          
H1       H      0.097550000000     0.272400000000     0.902450000000     0          
O2       O      0.109050000000     0.183000000000     0.609050000000     0          
C1       C      0.125000000000     0.194350000000     0.625000000000     0          
C2       C      0.125000000000     0.223100000000     0.625000000000     0          
C3       C      0.108550000000     0.236550000000     0.608550000000     0          
H1       H      0.097550000000     0.227600000000     0.597550000000     0          
O2       O      0.390950000000     0.317000000000     0.609050000000     0          
C1       C      0.375000000000     0.305650000000     0.625000000000     0          
C2       C      0.375000000000     0.276900000000     0.625000000000     0          
C3       C      0.391450000000     0.263450000000     0.608550000000     0          
H1       H      0.402450000000     0.272400000000     0.597550000000     0          
O2       O      0.390950000000     0.183000000000     0.890950000000     0          
C1       C      0.375000000000     0.194350000000     0.875000000000     0          
C2       C      0.375000000000     0.223100000000     0.875000000000     0          
C3       C      0.391450000000     0.236550000000     0.891450000000     0          
H1       H      0.402450000000     0.227600000000     0.902450000000     0          
O2       O      0.359050000000     0.140950000000     0.683000000000     0          
C3       C      0.358550000000     0.141450000000     0.736550000000     0          
H1       H      0.347550000000     0.152450000000     0.727600000000     0          
O2       O      0.109050000000     0.109050000000     0.683000000000     0          
C3       C      0.108550000000     0.108550000000     0.736550000000     0          
H1       H      0.097550000000     0.097550000000     0.727600000000     0          
O2       O      0.140950000000     0.359050000000     0.683000000000     0          
C3       C      0.141450000000     0.358550000000     0.736550000000     0          
H1       H      0.152450000000     0.347550000000     0.727600000000     0          
O2       O      0.390950000000     0.390950000000     0.683000000000     0          
C3       C      0.391450000000     0.391450000000     0.736550000000     0          
H1       H      0.402450000000     0.402450000000     0.727600000000     0          
O2       O      0.359050000000     0.359050000000     0.817000000000     0          
C3       C      0.358550000000     0.358550000000     0.763450000000     0          
H1       H      0.347550000000     0.347550000000     0.772400000000     0          
O2       O      0.390950000000     0.109050000000     0.817000000000     0          
C3       C      0.391450000000     0.108550000000     0.763450000000     0          
H1       H      0.402450000000     0.097550000000     0.772400000000     0          
O2       O      0.140950000000     0.140950000000     0.817000000000     0          
C3       C      0.141450000000     0.141450000000     0.763450000000     0          
H1       H      0.152450000000     0.152450000000     0.772400000000     0          
O2       O      0.109050000000     0.390950000000     0.817000000000     0          
C3       C      0.108550000000     0.391450000000     0.763450000000     0          
H1       H      0.097550000000     0.402450000000     0.772400000000     0          
O2       O      0.140950000000     0.183000000000     0.640950000000     0          
C3       C      0.141450000000     0.236550000000     0.641450000000     0          
H1       H      0.152450000000     0.227600000000     0.652450000000     0          
O2       O      0.359050000000     0.317000000000     0.640950000000     0          
C3       C      0.358550000000     0.263450000000     0.641450000000     0          
H1       H      0.347550000000     0.272400000000     0.652450000000     0          
O2       O      0.359050000000     0.183000000000     0.859050000000     0          
C3       C      0.358550000000     0.236550000000     0.858550000000     0          
H1       H      0.347550000000     0.227600000000     0.847550000000     0          
O2       O      0.140950000000     0.317000000000     0.859050000000     0          
C3       C      0.141450000000     0.263450000000     0.858550000000     0          
H1       H      0.152450000000     0.272400000000     0.847550000000     0          
O2       O      0.390950000000     0.183000000000     0.609050000000     0          
C3       C      0.391450000000     0.236550000000     0.608550000000     0          
H1       H      0.402450000000     0.227600000000     0.597550000000     0          
O2       O      0.390950000000     0.317000000000     0.890950000000     0          
C3       C      0.391450000000     0.263450000000     0.891450000000     0          
H1       H      0.402450000000     0.272400000000     0.902450000000     0          
O2       O      0.109050000000     0.183000000000     0.890950000000     0          
C3       C      0.108550000000     0.236550000000     0.891450000000     0          
H1       H      0.097550000000     0.227600000000     0.902450000000     0          
O2       O      0.109050000000     0.317000000000     0.609050000000     0          
C3       C      0.108550000000     0.263450000000     0.608550000000     0          
H1       H      0.097550000000     0.272400000000     0.597550000000     0          
O2       O      0.317000000000     0.140950000000     0.859050000000     0          
C1       C      0.305650000000     0.125000000000     0.875000000000     0          
C2       C      0.276900000000     0.125000000000     0.875000000000     0          
C3       C      0.263450000000     0.141450000000     0.858550000000     0          
H1       H      0.272400000000     0.152450000000     0.847550000000     0          
O2       O      0.183000000000     0.359050000000     0.859050000000     0          
C1       C      0.194350000000     0.375000000000     0.875000000000     0          
C2       C      0.223100000000     0.375000000000     0.875000000000     0          
C3       C      0.236550000000     0.358550000000     0.858550000000     0          
H1       H      0.227600000000     0.347550000000     0.847550000000     0          
O2       O      0.317000000000     0.359050000000     0.640950000000     0          
C1       C      0.305650000000     0.375000000000     0.625000000000     0          
C2       C      0.276900000000     0.375000000000     0.625000000000     0          
C3       C      0.263450000000     0.358550000000     0.641450000000     0          
H1       H      0.272400000000     0.347550000000     0.652450000000     0          
O2       O      0.183000000000     0.140950000000     0.640950000000     0          
C1       C      0.194350000000     0.125000000000     0.625000000000     0          
C2       C      0.223100000000     0.125000000000     0.625000000000     0          
C3       C      0.236550000000     0.141450000000     0.641450000000     0          
H1       H      0.227600000000     0.152450000000     0.652450000000     0          
O2       O      0.317000000000     0.109050000000     0.609050000000     0          
C1       C      0.305650000000     0.125000000000     0.625000000000     0          
C2       C      0.276900000000     0.125000000000     0.625000000000     0          
C3       C      0.263450000000     0.108550000000     0.608550000000     0          
H1       H      0.272400000000     0.097550000000     0.597550000000     0          
O2       O      0.183000000000     0.390950000000     0.609050000000     0          
C1       C      0.194350000000     0.375000000000     0.625000000000     0          
C2       C      0.223100000000     0.375000000000     0.625000000000     0          
C3       C      0.236550000000     0.391450000000     0.608550000000     0          
H1       H      0.227600000000     0.402450000000     0.597550000000     0          
O2       O      0.317000000000     0.390950000000     0.890950000000     0          
C1       C      0.305650000000     0.375000000000     0.875000000000     0          
C2       C      0.276900000000     0.375000000000     0.875000000000     0          
C3       C      0.263450000000     0.391450000000     0.891450000000     0          
H1       H      0.272400000000     0.402450000000     0.902450000000     0          
O2       O      0.183000000000     0.109050000000     0.890950000000     0          
C1       C      0.194350000000     0.125000000000     0.875000000000     0          
C2       C      0.223100000000     0.125000000000     0.875000000000     0          
C3       C      0.236550000000     0.108550000000     0.891450000000     0          
H1       H      0.227600000000     0.097550000000     0.902450000000     0          
O2       O      0.183000000000     0.359050000000     0.640950000000     0          
C3       C      0.236550000000     0.358550000000     0.641450000000     0          
H1       H      0.227600000000     0.347550000000     0.652450000000     0          
O2       O      0.317000000000     0.140950000000     0.640950000000     0          
C3       C      0.263450000000     0.141450000000     0.641450000000     0          
H1       H      0.272400000000     0.152450000000     0.652450000000     0          
O2       O      0.183000000000     0.140950000000     0.859050000000     0          
C3       C      0.236550000000     0.141450000000     0.858550000000     0          
H1       H      0.227600000000     0.152450000000     0.847550000000     0          
O2       O      0.317000000000     0.359050000000     0.859050000000     0          
C3       C      0.263450000000     0.358550000000     0.858550000000     0          
H1       H      0.272400000000     0.347550000000     0.847550000000     0          
O2       O      0.183000000000     0.390950000000     0.890950000000     0          
C3       C      0.236550000000     0.391450000000     0.891450000000     0          
H1       H      0.227600000000     0.402450000000     0.902450000000     0          
O2       O      0.317000000000     0.109050000000     0.890950000000     0          
C3       C      0.263450000000     0.108550000000     0.891450000000     0          
H1       H      0.272400000000     0.097550000000     0.902450000000     0          
O2       O      0.183000000000     0.109050000000     0.609050000000     0          
C3       C      0.236550000000     0.108550000000     0.608550000000     0          
H1       H      0.227600000000     0.097550000000     0.597550000000     0          
O2       O      0.317000000000     0.390950000000     0.609050000000     0          
C3       C      0.263450000000     0.391450000000     0.608550000000     0          
H1       H      0.272400000000     0.402450000000     0.597550000000     0          
Zn1      Zn     0.146700000000     0.603300000000     0.103300000000     0          
O1       O      0.125000000000     0.625000000000     0.125000000000     0          
O2       O      0.140950000000     0.609050000000     0.067000000000     0          
C1       C      0.125000000000     0.625000000000     0.055650000000     0          
C2       C      0.125000000000     0.625000000000     0.026900000000     0          
C3       C      0.141450000000     0.608550000000     0.013450000000     0          
H1       H      0.152450000000     0.597550000000     0.022400000000     0          
Zn1      Zn     0.396700000000     0.646700000000     0.103300000000     0          
O1       O      0.375000000000     0.625000000000     0.125000000000     0          
O2       O      0.390950000000     0.640950000000     0.067000000000     0          
C1       C      0.375000000000     0.625000000000     0.055650000000     0          
C2       C      0.375000000000     0.625000000000     0.026900000000     0          
C3       C      0.391450000000     0.641450000000     0.013450000000     0          
H1       H      0.402450000000     0.652450000000     0.022400000000     0          
Zn1      Zn     0.353300000000     0.896700000000     0.103300000000     0          
O1       O      0.375000000000     0.875000000000     0.125000000000     0          
O2       O      0.359050000000     0.890950000000     0.067000000000     0          
C1       C      0.375000000000     0.875000000000     0.055650000000     0          
C2       C      0.375000000000     0.875000000000     0.026900000000     0          
C3       C      0.358550000000     0.891450000000     0.013450000000     0          
H1       H      0.347550000000     0.902450000000     0.022400000000     0          
Zn1      Zn     0.103300000000     0.853300000000     0.103300000000     0          
O1       O      0.125000000000     0.875000000000     0.125000000000     0          
O2       O      0.109050000000     0.859050000000     0.067000000000     0          
C1       C      0.125000000000     0.875000000000     0.055650000000     0          
C2       C      0.125000000000     0.875000000000     0.026900000000     0          
C3       C      0.108550000000     0.858550000000     0.013450000000     0          
H1       H      0.097550000000     0.847550000000     0.022400000000     0          
Zn1      Zn     0.146700000000     0.896700000000     0.396700000000     0          
O1       O      0.125000000000     0.875000000000     0.375000000000     0          
O2       O      0.140950000000     0.890950000000     0.433000000000     0          
C1       C      0.125000000000     0.875000000000     0.444350000000     0          
C2       C      0.125000000000     0.875000000000     0.473100000000     0          
C3       C      0.141450000000     0.891450000000     0.486550000000     0          
H1       H      0.152450000000     0.902450000000     0.477600000000     0          
Zn1      Zn     0.103300000000     0.646700000000     0.396700000000     0          
O1       O      0.125000000000     0.625000000000     0.375000000000     0          
O2       O      0.109050000000     0.640950000000     0.433000000000     0          
C1       C      0.125000000000     0.625000000000     0.444350000000     0          
C2       C      0.125000000000     0.625000000000     0.473100000000     0          
C3       C      0.108550000000     0.641450000000     0.486550000000     0          
H1       H      0.097550000000     0.652450000000     0.477600000000     0          
Zn1      Zn     0.353300000000     0.603300000000     0.396700000000     0          
O1       O      0.375000000000     0.625000000000     0.375000000000     0          
O2       O      0.359050000000     0.609050000000     0.433000000000     0          
C1       C      0.375000000000     0.625000000000     0.444350000000     0          
C2       C      0.375000000000     0.625000000000     0.473100000000     0          
C3       C      0.358550000000     0.608550000000     0.486550000000     0          
H1       H      0.347550000000     0.597550000000     0.477600000000     0          
Zn1      Zn     0.396700000000     0.853300000000     0.396700000000     0          
O1       O      0.375000000000     0.875000000000     0.375000000000     0          
O2       O      0.390950000000     0.859050000000     0.433000000000     0          
C1       C      0.375000000000     0.875000000000     0.444350000000     0          
C2       C      0.375000000000     0.875000000000     0.473100000000     0          
C3       C      0.391450000000     0.858550000000     0.486550000000     0          
H1       H      0.402450000000     0.847550000000     0.477600000000     0          
Zn1      Zn     0.103300000000     0.646700000000     0.103300000000     0          
O2       O      0.067000000000     0.640950000000     0.109050000000     0          
C1       C      0.055650000000     0.625000000000     0.125000000000     0          
C2       C      0.026900000000     0.625000000000     0.125000000000     0          
C3       C      0.013450000000     0.641450000000     0.108550000000     0          
H1       H      0.022400000000     0.652450000000     0.097550000000     0          
Zn1      Zn     0.353300000000     0.603300000000     0.103300000000     0          
O2       O      0.359050000000     0.567000000000     0.109050000000     0          
C1       C      0.375000000000     0.555650000000     0.125000000000     0          
C2       C      0.375000000000     0.526900000000     0.125000000000     0          
C3       C      0.358550000000     0.513450000000     0.108550000000     0          
H1       H      0.347550000000     0.522400000000     0.097550000000     0          
Zn1      Zn     0.396700000000     0.853300000000     0.103300000000     0          
O2       O      0.433000000000     0.859050000000     0.109050000000     0          
C1       C      0.444350000000     0.875000000000     0.125000000000     0          
C2       C      0.473100000000     0.875000000000     0.125000000000     0          
C3       C      0.486550000000     0.858550000000     0.108550000000     0          
H1       H      0.477600000000     0.847550000000     0.097550000000     0          
Zn1      Zn     0.146700000000     0.896700000000     0.103300000000     0          
O2       O      0.140950000000     0.933000000000     0.109050000000     0          
C1       C      0.125000000000     0.944350000000     0.125000000000     0          
C2       C      0.125000000000     0.973100000000     0.125000000000     0          
C3       C      0.141450000000     0.986550000000     0.108550000000     0          
H1       H      0.152450000000     0.977600000000     0.097550000000     0          
Zn1      Zn     0.103300000000     0.853300000000     0.396700000000     0          
O2       O      0.067000000000     0.859050000000     0.390950000000     0          
C1       C      0.055650000000     0.875000000000     0.375000000000     0          
C2       C      0.026900000000     0.875000000000     0.375000000000     0          
C3       C      0.013450000000     0.858550000000     0.391450000000     0          
H1       H      0.022400000000     0.847550000000     0.402450000000     0          
Zn1      Zn     0.146700000000     0.603300000000     0.396700000000     0          
O2       O      0.140950000000     0.567000000000     0.390950000000     0          
C1       C      0.125000000000     0.555650000000     0.375000000000     0          
C2       C      0.125000000000     0.526900000000     0.375000000000     0          
C3       C      0.141450000000     0.513450000000     0.391450000000     0          
H1       H      0.152450000000     0.522400000000     0.402450000000     0          
Zn1      Zn     0.396700000000     0.646700000000     0.396700000000     0          
O2       O      0.433000000000     0.640950000000     0.390950000000     0          
C1       C      0.444350000000     0.625000000000     0.375000000000     0          
C2       C      0.473100000000     0.625000000000     0.375000000000     0          
C3       C      0.486550000000     0.641450000000     0.391450000000     0          
H1       H      0.477600000000     0.652450000000     0.402450000000     0          
Zn1      Zn     0.353300000000     0.896700000000     0.396700000000     0          
O2       O      0.359050000000     0.933000000000     0.390950000000     0          
C1       C      0.375000000000     0.944350000000     0.375000000000     0          
C2       C      0.375000000000     0.973100000000     0.375000000000     0          
C3       C      0.358550000000     0.986550000000     0.391450000000     0          
H1       H      0.347550000000     0.977600000000     0.402450000000     0          
Zn1      Zn     0.103300000000     0.603300000000     0.146700000000     0          
O2       O      0.109050000000     0.567000000000     0.140950000000     0          
C1       C      0.125000000000     0.555650000000     0.125000000000     0          
C2       C      0.125000000000     0.526900000000     0.125000000000     0          
C3       C      0.108550000000     0.513450000000     0.141450000000     0          
H1       H      0.097550000000     0.522400000000     0.152450000000     0          
Zn1      Zn     0.103300000000     0.896700000000     0.353300000000     0          
O2       O      0.109050000000     0.933000000000     0.359050000000     0          
C1       C      0.125000000000     0.944350000000     0.375000000000     0          
C2       C      0.125000000000     0.973100000000     0.375000000000     0          
C3       C      0.108550000000     0.986550000000     0.358550000000     0          
H1       H      0.097550000000     0.977600000000     0.347550000000     0          
Zn1      Zn     0.103300000000     0.603300000000     0.353300000000     0          
O2       O      0.067000000000     0.609050000000     0.359050000000     0          
C1       C      0.055650000000     0.625000000000     0.375000000000     0          
C2       C      0.026900000000     0.625000000000     0.375000000000     0          
C3       C      0.013450000000     0.608550000000     0.358550000000     0          
H1       H      0.022400000000     0.597550000000     0.347550000000     0          
Zn1      Zn     0.396700000000     0.603300000000     0.353300000000     0          
O2       O      0.390950000000     0.567000000000     0.359050000000     0          
C1       C      0.375000000000     0.555650000000     0.375000000000     0          
C2       C      0.375000000000     0.526900000000     0.375000000000     0          
C3       C      0.391450000000     0.513450000000     0.358550000000     0          
H1       H      0.402450000000     0.522400000000     0.347550000000     0          
Zn1      Zn     0.396700000000     0.896700000000     0.353300000000     0          
O2       O      0.433000000000     0.890950000000     0.359050000000     0          
C1       C      0.444350000000     0.875000000000     0.375000000000     0          
C2       C      0.473100000000     0.875000000000     0.375000000000     0          
C3       C      0.486550000000     0.891450000000     0.358550000000     0          
H1       H      0.477600000000     0.902450000000     0.347550000000     0          
Zn1      Zn     0.396700000000     0.896700000000     0.146700000000     0          
O2       O      0.390950000000     0.933000000000     0.140950000000     0          
C1       C      0.375000000000     0.944350000000     0.125000000000     0          
C2       C      0.375000000000     0.973100000000     0.125000000000     0          
C3       C      0.391450000000     0.986550000000     0.141450000000     0          
H1       H      0.402450000000     0.977600000000     0.152450000000     0          
Zn1      Zn     0.103300000000     0.896700000000     0.146700000000     0          
O2       O      0.067000000000     0.890950000000     0.140950000000     0          
C1       C      0.055650000000     0.875000000000     0.125000000000     0          
C2       C      0.026900000000     0.875000000000     0.125000000000     0          
C3       C      0.013450000000     0.891450000000     0.141450000000     0          
H1       H      0.022400000000     0.902450000000     0.152450000000     0          
Zn1      Zn     0.396700000000     0.603300000000     0.146700000000     0          
O2       O      0.433000000000     0.609050000000     0.140950000000     0          
C1       C      0.444350000000     0.625000000000     0.125000000000     0          
C2       C      0.473100000000     0.625000000000     0.125000000000     0          
C3       C      0.486550000000     0.608550000000     0.141450000000     0          
H1       H      0.477600000000     0.597550000000     0.152450000000     0          
O2       O      0.359050000000     0.890950000000     0.433000000000     0          
C3       C      0.358550000000     0.891450000000     0.486550000000     0          
H1       H      0.347550000000     0.902450000000     0.477600000000     0          
O2       O      0.109050000000     0.859050000000     0.433000000000     0          
C3       C      0.108550000000     0.858550000000     0.486550000000     0          
H1       H      0.097550000000     0.847550000000     0.477600000000     0          
O2       O      0.140950000000     0.609050000000     0.433000000000     0          
C3       C      0.141450000000     0.608550000000     0.486550000000     0          
H1       H      0.152450000000     0.597550000000     0.477600000000     0          
O2       O      0.390950000000     0.640950000000     0.433000000000     0          
C3       C      0.391450000000     0.641450000000     0.486550000000     0          
H1       H      0.402450000000     0.652450000000     0.477600000000     0          
O2       O      0.359050000000     0.609050000000     0.067000000000     0          
C3       C      0.358550000000     0.608550000000     0.013450000000     0          
H1       H      0.347550000000     0.597550000000     0.022400000000     0          
O2       O      0.390950000000     0.859050000000     0.067000000000     0          
C3       C      0.391450000000     0.858550000000     0.013450000000     0          
H1       H      0.402450000000     0.847550000000     0.022400000000     0          
O2       O      0.140950000000     0.890950000000     0.067000000000     0          
C3       C      0.141450000000     0.891450000000     0.013450000000     0          
H1       H      0.152450000000     0.902450000000     0.022400000000     0          
O2       O      0.109050000000     0.640950000000     0.067000000000     0          
C3       C      0.108550000000     0.641450000000     0.013450000000     0          
H1       H      0.097550000000     0.652450000000     0.022400000000     0          
O2       O      0.433000000000     0.859050000000     0.390950000000     0          
C3       C      0.486550000000     0.858550000000     0.391450000000     0          
H1       H      0.477600000000     0.847550000000     0.402450000000     0          
O2       O      0.140950000000     0.933000000000     0.390950000000     0          
C3       C      0.141450000000     0.986550000000     0.391450000000     0          
H1       H      0.152450000000     0.977600000000     0.402450000000     0          
O2       O      0.067000000000     0.640950000000     0.390950000000     0          
C3       C      0.013450000000     0.641450000000     0.391450000000     0          
H1       H      0.022400000000     0.652450000000     0.402450000000     0          
O2       O      0.359050000000     0.567000000000     0.390950000000     0          
C3       C      0.358550000000     0.513450000000     0.391450000000     0          
H1       H      0.347550000000     0.522400000000     0.402450000000     0          
O2       O      0.433000000000     0.640950000000     0.109050000000     0          
C3       C      0.486550000000     0.641450000000     0.108550000000     0          
H1       H      0.477600000000     0.652450000000     0.097550000000     0          
O2       O      0.359050000000     0.933000000000     0.109050000000     0          
C3       C      0.358550000000     0.986550000000     0.108550000000     0          
H1       H      0.347550000000     0.977600000000     0.097550000000     0          
O2       O      0.067000000000     0.859050000000     0.109050000000     0          
C3       C      0.013450000000     0.858550000000     0.108550000000     0          
H1       H      0.022400000000     0.847550000000     0.097550000000     0          
O2       O      0.140950000000     0.567000000000     0.109050000000     0          
C3       C      0.141450000000     0.513450000000     0.108550000000     0          
H1       H      0.152450000000     0.522400000000     0.097550000000     0          
O2       O      0.390950000000     0.933000000000     0.359050000000     0          
C3       C      0.391450000000     0.986550000000     0.358550000000     0          
H1       H      0.402450000000     0.977600000000     0.347550000000     0          
O2       O      0.390950000000     0.567000000000     0.140950000000     0          
C3       C      0.391450000000     0.513450000000     0.141450000000     0          
H1       H      0.402450000000     0.522400000000     0.152450000000     0          
O2       O      0.433000000000     0.890950000000     0.140950000000     0          
C3       C      0.486550000000     0.891450000000     0.141450000000     0          
H1       H      0.477600000000     0.902450000000     0.152450000000     0          
O2       O      0.109050000000     0.933000000000     0.140950000000     0          
C3       C      0.108550000000     0.986550000000     0.141450000000     0          
H1       H      0.097550000000     0.977600000000     0.152450000000     0          
O2       O      0.067000000000     0.609050000000     0.140950000000     0          
C3       C      0.013450000000     0.608550000000     0.141450000000     0          
H1       H      0.022400000000     0.597550000000     0.152450000000     0          
O2       O      0.109050000000     0.567000000000     0.359050000000     0          
C3       C      0.108550000000     0.513450000000     0.358550000000     0          
H1       H      0.097550000000     0.522400000000     0.347550000000     0          
O2       O      0.433000000000     0.609050000000     0.359050000000     0          
C3       C      0.486550000000     0.608550000000     0.358550000000     0          
H1       H      0.477600000000     0.597550000000     0.347550000000     0          
O2       O      0.067000000000     0.890950000000     0.359050000000     0          
C3       C      0.013450000000     0.891450000000     0.358550000000     0          
H1       H      0.022400000000     0.902450000000     0.347550000000     0          
Zn1      Zn     0.146700000000     0.853300000000     0.353300000000     0          
O2       O      0.140950000000     0.859050000000     0.317000000000     0          
C1       C      0.125000000000     0.875000000000     0.305650000000     0          
C2       C      0.125000000000     0.875000000000     0.276900000000     0          
C3       C      0.141450000000     0.858550000000     0.263450000000     0          
H1       H      0.152450000000     0.847550000000     0.272400000000     0          
O2       O      0.390950000000     0.890950000000     0.317000000000     0          
C1       C      0.375000000000     0.875000000000     0.305650000000     0          
C2       C      0.375000000000     0.875000000000     0.276900000000     0          
C3       C      0.391450000000     0.891450000000     0.263450000000     0          
H1       H      0.402450000000     0.902450000000     0.272400000000     0          
Zn1      Zn     0.353300000000     0.646700000000     0.353300000000     0          
O2       O      0.359050000000     0.640950000000     0.317000000000     0          
C1       C      0.375000000000     0.625000000000     0.305650000000     0          
C2       C      0.375000000000     0.625000000000     0.276900000000     0          
C3       C      0.358550000000     0.641450000000     0.263450000000     0          
H1       H      0.347550000000     0.652450000000     0.272400000000     0          
O2       O      0.109050000000     0.609050000000     0.317000000000     0          
C1       C      0.125000000000     0.625000000000     0.305650000000     0          
C2       C      0.125000000000     0.625000000000     0.276900000000     0          
C3       C      0.108550000000     0.608550000000     0.263450000000     0          
H1       H      0.097550000000     0.597550000000     0.272400000000     0          
Zn1      Zn     0.146700000000     0.646700000000     0.146700000000     0          
O2       O      0.140950000000     0.640950000000     0.183000000000     0          
C1       C      0.125000000000     0.625000000000     0.194350000000     0          
C2       C      0.125000000000     0.625000000000     0.223100000000     0          
C3       C      0.141450000000     0.641450000000     0.236550000000     0          
H1       H      0.152450000000     0.652450000000     0.227600000000     0          
O2       O      0.109050000000     0.890950000000     0.183000000000     0          
C1       C      0.125000000000     0.875000000000     0.194350000000     0          
C2       C      0.125000000000     0.875000000000     0.223100000000     0          
C3       C      0.108550000000     0.891450000000     0.236550000000     0          
H1       H      0.097550000000     0.902450000000     0.227600000000     0          
Zn1      Zn     0.353300000000     0.853300000000     0.146700000000     0          
O2       O      0.359050000000     0.859050000000     0.183000000000     0          
C1       C      0.375000000000     0.875000000000     0.194350000000     0          
C2       C      0.375000000000     0.875000000000     0.223100000000     0          
C3       C      0.358550000000     0.858550000000     0.236550000000     0          
H1       H      0.347550000000     0.847550000000     0.227600000000     0          
O2       O      0.390950000000     0.609050000000     0.183000000000     0          
C1       C      0.375000000000     0.625000000000     0.194350000000     0          
C2       C      0.375000000000     0.625000000000     0.223100000000     0          
C3       C      0.391450000000     0.608550000000     0.236550000000     0          
H1       H      0.402450000000     0.597550000000     0.227600000000     0          
Zn1      Zn     0.353300000000     0.853300000000     0.353300000000     0          
O2       O      0.359050000000     0.817000000000     0.359050000000     0          
C1       C      0.375000000000     0.805650000000     0.375000000000     0          
C2       C      0.375000000000     0.776900000000     0.375000000000     0          
C3       C      0.358550000000     0.763450000000     0.358550000000     0          
H1       H      0.347550000000     0.772400000000     0.347550000000     0          
Zn1      Zn     0.146700000000     0.646700000000     0.353300000000     0          
O2       O      0.140950000000     0.683000000000     0.359050000000     0          
C1       C      0.125000000000     0.694350000000     0.375000000000     0          
C2       C      0.125000000000     0.723100000000     0.375000000000     0          
C3       C      0.141450000000     0.736550000000     0.358550000000     0          
H1       H      0.152450000000     0.727600000000     0.347550000000     0          
Zn1      Zn     0.146700000000     0.853300000000     0.146700000000     0          
O2       O      0.140950000000     0.817000000000     0.140950000000     0          
C1       C      0.125000000000     0.805650000000     0.125000000000     0          
C2       C      0.125000000000     0.776900000000     0.125000000000     0          
C3       C      0.141450000000     0.763450000000     0.141450000000     0          
H1       H      0.152450000000     0.772400000000     0.152450000000     0          
Zn1      Zn     0.353300000000     0.646700000000     0.146700000000     0          
O2       O      0.359050000000     0.683000000000     0.140950000000     0          
C1       C      0.375000000000     0.694350000000     0.125000000000     0          
C2       C      0.375000000000     0.723100000000     0.125000000000     0          
C3       C      0.358550000000     0.736550000000     0.141450000000     0          
H1       H      0.347550000000     0.727600000000     0.152450000000     0          
O2       O      0.109050000000     0.817000000000     0.390950000000     0          
C1       C      0.125000000000     0.805650000000     0.375000000000     0          
C2       C      0.125000000000     0.776900000000     0.375000000000     0          
C3       C      0.108550000000     0.763450000000     0.391450000000     0          
H1       H      0.097550000000     0.772400000000     0.402450000000     0          
O2       O      0.109050000000     0.683000000000     0.109050000000     0          
C1       C      0.125000000000     0.694350000000     0.125000000000     0          
C2       C      0.125000000000     0.723100000000     0.125000000000     0          
C3       C      0.108550000000     0.736550000000     0.108550000000     0          
H1       H      0.097550000000     0.727600000000     0.097550000000     0          
O2       O      0.390950000000     0.817000000000     0.109050000000     0          
C1       C      0.375000000000     0.805650000000     0.125000000000     0          
C2       C      0.375000000000     0.776900000000     0.125000000000     0          
C3       C      0.391450000000     0.763450000000     0.108550000000     0          
H1       H      0.402450000000     0.772400000000     0.097550000000     0          
O2       O      0.390950000000     0.683000000000     0.390950000000     0          
C1       C      0.375000000000     0.694350000000     0.375000000000     0          
C2       C      0.375000000000     0.723100000000     0.375000000000     0          
C3       C      0.391450000000     0.736550000000     0.391450000000     0          
H1       H      0.402450000000     0.727600000000     0.402450000000     0          
O2       O      0.359050000000     0.640950000000     0.183000000000     0          
C3       C      0.358550000000     0.641450000000     0.236550000000     0          
H1       H      0.347550000000     0.652450000000     0.227600000000     0          
O2       O      0.109050000000     0.609050000000     0.183000000000     0          
C3       C      0.108550000000     0.608550000000     0.236550000000     0          
H1       H      0.097550000000     0.597550000000     0.227600000000     0          
O2       O      0.140950000000     0.859050000000     0.183000000000     0          
C3       C      0.141450000000     0.858550000000     0.236550000000     0          
H1       H      0.152450000000     0.847550000000     0.227600000000     0          
O2       O      0.390950000000     0.890950000000     0.183000000000     0          
C3       C      0.391450000000     0.891450000000     0.236550000000     0          
H1       H      0.402450000000     0.902450000000     0.227600000000     0          
O2       O      0.359050000000     0.859050000000     0.317000000000     0          
C3       C      0.358550000000     0.858550000000     0.263450000000     0          
H1       H      0.347550000000     0.847550000000     0.272400000000     0          
O2       O      0.390950000000     0.609050000000     0.317000000000     0          
C3       C      0.391450000000     0.608550000000     0.263450000000     0          
H1       H      0.402450000000     0.597550000000     0.272400000000     0          
O2       O      0.140950000000     0.640950000000     0.317000000000     0          
C3       C      0.141450000000     0.641450000000     0.263450000000     0          
H1       H      0.152450000000     0.652450000000     0.272400000000     0          
O2       O      0.109050000000     0.890950000000     0.317000000000     0          
C3       C      0.108550000000     0.891450000000     0.263450000000     0          
H1       H      0.097550000000     0.902450000000     0.272400000000     0          
O2       O      0.140950000000     0.683000000000     0.140950000000     0          
C3       C      0.141450000000     0.736550000000     0.141450000000     0          
H1       H      0.152450000000     0.727600000000     0.152450000000     0          
O2       O      0.359050000000     0.817000000000     0.140950000000     0          
C3       C      0.358550000000     0.763450000000     0.141450000000     0          
H1       H      0.347550000000     0.772400000000     0.152450000000     0          
O2       O      0.359050000000     0.683000000000     0.359050000000     0          
C3       C      0.358550000000     0.736550000000     0.358550000000     0          
H1       H      0.347550000000     0.727600000000     0.347550000000     0          
O2       O      0.140950000000     0.817000000000     0.359050000000     0          
C3       C      0.141450000000     0.763450000000     0.358550000000     0          
H1       H      0.152450000000     0.772400000000     0.347550000000     0          
O2       O      0.390950000000     0.683000000000     0.109050000000     0          
C3       C      0.391450000000     0.736550000000     0.108550000000     0          
H1       H      0.402450000000     0.727600000000     0.097550000000     0          
O2       O      0.390950000000     0.817000000000     0.390950000000     0          
C3       C      0.391450000000     0.763450000000     0.391450000000     0          
H1       H      0.402450000000     0.772400000000     0.402450000000     0          
O2       O      0.109050000000     0.683000000000     0.390950000000     0          
C3       C      0.108550000000     0.736550000000     0.391450000000     0          
H1       H      0.097550000000     0.727600000000     0.402450000000     0          
O2       O      0.109050000000     0.817000000000     0.109050000000     0          
C3       C      0.108550000000     0.763450000000     0.108550000000     0          
H1       H      0.097550000000     0.772400000000     0.097550000000     0          
O2       O      0.317000000000     0.640950000000     0.359050000000     0          
C1       C      0.305650000000     0.625000000000     0.375000000000     0          
C2       C      0.276900000000     0.625000000000     0.375000000000     0          
C3       C      0.263450000000     0.641450000000     0.358550000000     0          
H1       H      0.272400000000     0.652450000000     0.347550000000     0          
O2       O      0.183000000000     0.859050000000     0.359050000000     0          
C1       C      0.194350000000     0.875000000000     0.375000000000     0          
C2       C      0.223100000000     0.875000000000     0.375000000000     0          
C3       C      0.236550000000     0.858550000000     0.358550000000     0          
H1       H      0.227600000000     0.847550000000     0.347550000000     0          
O2       O      0.317000000000     0.859050000000     0.140950000000     0          
C1       C      0.305650000000     0.875000000000     0.125000000000     0          
C2       C      0.276900000000     0.875000000000     0.125000000000     0          
C3       C      0.263450000000     0.858550000000     0.141450000000     0          
H1       H      0.272400000000     0.847550000000     0.152450000000     0          
O2       O      0.183000000000     0.640950000000     0.140950000000     0          
C1       C      0.194350000000     0.625000000000     0.125000000000     0          
C2       C      0.223100000000     0.625000000000     0.125000000000     0          
C3       C      0.236550000000     0.641450000000     0.141450000000     0          
H1       H      0.227600000000     0.652450000000     0.152450000000     0          
O2       O      0.317000000000     0.609050000000     0.109050000000     0          
C1       C      0.305650000000     0.625000000000     0.125000000000     0          
C2       C      0.276900000000     0.625000000000     0.125000000000     0          
C3       C      0.263450000000     0.608550000000     0.108550000000     0          
H1       H      0.272400000000     0.597550000000     0.097550000000     0          
O2       O      0.183000000000     0.890950000000     0.109050000000     0          
C1       C      0.194350000000     0.875000000000     0.125000000000     0          
C2       C      0.223100000000     0.875000000000     0.125000000000     0          
C3       C      0.236550000000     0.891450000000     0.108550000000     0          
H1       H      0.227600000000     0.902450000000     0.097550000000     0          
O2       O      0.317000000000     0.890950000000     0.390950000000     0          
C1       C      0.305650000000     0.875000000000     0.375000000000     0          
C2       C      0.276900000000     0.875000000000     0.375000000000     0          
C3       C      0.263450000000     0.891450000000     0.391450000000     0          
H1       H      0.272400000000     0.902450000000     0.402450000000     0          
O2       O      0.183000000000     0.609050000000     0.390950000000     0          
C1       C      0.194350000000     0.625000000000     0.375000000000     0          
C2       C      0.223100000000     0.625000000000     0.375000000000     0          
C3       C      0.236550000000     0.608550000000     0.391450000000     0          
H1       H      0.227600000000     0.597550000000     0.402450000000     0          
O2       O      0.183000000000     0.859050000000     0.140950000000     0          
C3       C      0.236550000000     0.858550000000     0.141450000000     0          
H1       H      0.227600000000     0.847550000000     0.152450000000     0          
O2       O      0.317000000000     0.640950000000     0.140950000000     0          
C3       C      0.263450000000     0.641450000000     0.141450000000     0          
H1       H      0.272400000000     0.652450000000     0.152450000000     0          
O2       O      0.183000000000     0.640950000000     0.359050000000     0          
C3       C      0.236550000000     0.641450000000     0.358550000000     0          
H1       H      0.227600000000     0.652450000000     0.347550000000     0          
O2       O      0.317000000000     0.859050000000     0.359050000000     0          
C3       C      0.263450000000     0.858550000000     0.358550000000     0          
H1       H      0.272400000000     0.847550000000     0.347550000000     0          
O2       O      0.183000000000     0.890950000000     0.390950000000     0          
C3       C      0.236550000000     0.891450000000     0.391450000000     0          
H1       H      0.227600000000     0.902450000000     0.402450000000     0          
O2       O      0.317000000000     0.609050000000     0.390950000000     0          
C3       C      0.263450000000     0.608550000000     0.391450000000     0          
H1       H      0.272400000000     0.597550000000     0.402450000000     0          
O2       O      0.183000000000     0.609050000000     0.109050000000     0          
C3       C      0.236550000000     0.608550000000     0.108550000000     0          
H1       H      0.227600000000     0.597550000000     0.097550000000     0          
O2       O      0.317000000000     0.890950000000     0.109050000000     0          
C3       C      0.263450000000     0.891450000000     0.108550000000     0          
H1       H      0.272400000000     0.902450000000     0.097550000000     0          
Zn1      Zn     0.146700000000     0.603300000000     0.603300000000     0          
O1       O      0.125000000000     0.625000000000     0.625000000000     0          
O2       O      0.140950000000     0.609050000000     0.567000000000     0          
C1       C      0.125000000000     0.625000000000     0.555650000000     0          
C2       C      0.125000000000     0.625000000000     0.526900000000     0          
C3       C      0.141450000000     0.608550000000     0.513450000000     0          
H1       H      0.152450000000     0.597550000000     0.522400000000     0          
Zn1      Zn     0.396700000000     0.646700000000     0.603300000000     0          
O1       O      0.375000000000     0.625000000000     0.625000000000     0          
O2       O      0.390950000000     0.640950000000     0.567000000000     0          
C1       C      0.375000000000     0.625000000000     0.555650000000     0          
C2       C      0.375000000000     0.625000000000     0.526900000000     0          
C3       C      0.391450000000     0.641450000000     0.513450000000     0          
H1       H      0.402450000000     0.652450000000     0.522400000000     0          
Zn1      Zn     0.353300000000     0.896700000000     0.603300000000     0          
O1       O      0.375000000000     0.875000000000     0.625000000000     0          
O2       O      0.359050000000     0.890950000000     0.567000000000     0          
C1       C      0.375000000000     0.875000000000     0.555650000000     0          
C2       C      0.375000000000     0.875000000000     0.526900000000     0          
C3       C      0.358550000000     0.891450000000     0.513450000000     0          
H1       H      0.347550000000     0.902450000000     0.522400000000     0          
Zn1      Zn     0.103300000000     0.853300000000     0.603300000000     0          
O1       O      0.125000000000     0.875000000000     0.625000000000     0          
O2       O      0.109050000000     0.859050000000     0.567000000000     0          
C1       C      0.125000000000     0.875000000000     0.555650000000     0          
C2       C      0.125000000000     0.875000000000     0.526900000000     0          
C3       C      0.108550000000     0.858550000000     0.513450000000     0          
H1       H      0.097550000000     0.847550000000     0.522400000000     0          
Zn1      Zn     0.146700000000     0.896700000000     0.896700000000     0          
O1       O      0.125000000000     0.875000000000     0.875000000000     0          
O2       O      0.140950000000     0.890950000000     0.933000000000     0          
C1       C      0.125000000000     0.875000000000     0.944350000000     0          
C2       C      0.125000000000     0.875000000000     0.973100000000     0          
C3       C      0.141450000000     0.891450000000     0.986550000000     0          
H1       H      0.152450000000     0.902450000000     0.977600000000     0          
Zn1      Zn     0.103300000000     0.646700000000     0.896700000000     0          
O1       O      0.125000000000     0.625000000000     0.875000000000     0          
O2       O      0.109050000000     0.640950000000     0.933000000000     0          
C1       C      0.125000000000     0.625000000000     0.944350000000     0          
C2       C      0.125000000000     0.625000000000     0.973100000000     0          
C3       C      0.108550000000     0.641450000000     0.986550000000     0          
H1       H      0.097550000000     0.652450000000     0.977600000000     0          
Zn1      Zn     0.353300000000     0.603300000000     0.896700000000     0          
O1       O      0.375000000000     0.625000000000     0.875000000000     0          
O2       O      0.359050000000     0.609050000000     0.933000000000     0          
C1       C      0.375000000000     0.625000000000     0.944350000000     0          
C2       C      0.375000000000     0.625000000000     0.973100000000     0          
C3       C      0.358550000000     0.608550000000     0.986550000000     0          
H1       H      0.347550000000     0.597550000000     0.977600000000     0          
Zn1      Zn     0.396700000000     0.853300000000     0.896700000000     0          
O1       O      0.375000000000     0.875000000000     0.875000000000     0          
O2       O      0.390950000000     0.859050000000     0.933000000000     0          
C1       C      0.375000000000     0.875000000000     0.944350000000     0          
C2       C      0.375000000000     0.875000000000     0.973100000000     0          
C3       C      0.391450000000     0.858550000000     0.986550000000     0          
H1       H      0.402450000000     0.847550000000     0.977600000000     0          
Zn1      Zn     0.103300000000     0.646700000000     0.603300000000     0          
O2       O      0.067000000000     0.640950000000     0.609050000000     0          
C1       C      0.055650000000     0.625000000000     0.625000000000     0          
C2       C      0.026900000000     0.625000000000     0.625000000000     0          
C3       C      0.013450000000     0.641450000000     0.608550000000     0          
H1       H      0.022400000000     0.652450000000     0.597550000000     0          
Zn1      Zn     0.353300000000     0.603300000000     0.603300000000     0          
O2       O      0.359050000000     0.567000000000     0.609050000000     0          
C1       C      0.375000000000     0.555650000000     0.625000000000     0          
C2       C      0.375000000000     0.526900000000     0.625000000000     0          
C3       C      0.358550000000     0.513450000000     0.608550000000     0          
H1       H      0.347550000000     0.522400000000     0.597550000000     0          
Zn1      Zn     0.396700000000     0.853300000000     0.603300000000     0          
O2       O      0.433000000000     0.859050000000     0.609050000000     0          
C1       C      0.444350000000     0.875000000000     0.625000000000     0          
C2       C      0.473100000000     0.875000000000     0.625000000000     0          
C3       C      0.486550000000     0.858550000000     0.608550000000     0          
H1       H      0.477600000000     0.847550000000     0.597550000000     0          
Zn1      Zn     0.146700000000     0.896700000000     0.603300000000     0          
O2       O      0.140950000000     0.933000000000     0.609050000000     0          
C1       C      0.125000000000     0.944350000000     0.625000000000     0          
C2       C      0.125000000000     0.973100000000     0.625000000000     0          
C3       C      0.141450000000     0.986550000000     0.608550000000     0          
H1       H      0.152450000000     0.977600000000     0.597550000000     0          
Zn1      Zn     0.103300000000     0.853300000000     0.896700000000     0          
O2       O      0.067000000000     0.859050000000     0.890950000000     0          
C1       C      0.055650000000     0.875000000000     0.875000000000     0          
C2       C      0.026900000000     0.875000000000     0.875000000000     0          
C3       C      0.013450000000     0.858550000000     0.891450000000     0          
H1       H      0.022400000000     0.847550000000     0.902450000000     0          
Zn1      Zn     0.146700000000     0.603300000000     0.896700000000     0          
O2       O      0.140950000000     0.567000000000     0.890950000000     0          
C1       C      0.125000000000     0.555650000000     0.875000000000     0          
C2       C      0.125000000000     0.526900000000     0.875000000000     0          
C3       C      0.141450000000     0.513450000000     0.891450000000     0          
H1       H      0.152450000000     0.522400000000     0.902450000000     0          
Zn1      Zn     0.396700000000     0.646700000000     0.896700000000     0          
O2       O      0.433000000000     0.640950000000     0.890950000000     0          
C1       C      0.444350000000     0.625000000000     0.875000000000     0          
C2       C      0.473100000000     0.625000000000     0.875000000000     0          
C3       C      0.486550000000     0.641450000000     0.891450000000     0          
H1       H      0.477600000000     0.652450000000     0.902450000000     0          
Zn1      Zn     0.353300000000     0.896700000000     0.896700000000     0          
O2       O      0.359050000000     0.933000000000     0.890950000000     0          
C1       C      0.375000000000     0.944350000000     0.875000000000     0          
C2       C      0.375000000000     0.973100000000     0.875000000000     0          
C3       C      0.358550000000     0.986550000000     0.891450000000     0          
H1       H      0.347550000000     0.977600000000     0.902450000000     0          
Zn1      Zn     0.103300000000     0.603300000000     0.646700000000     0          
O2       O      0.109050000000     0.567000000000     0.640950000000     0          
C1       C      0.125000000000     0.555650000000     0.625000000000     0          
C2       C      0.125000000000     0.526900000000     0.625000000000     0          
C3       C      0.108550000000     0.513450000000     0.641450000000     0          
H1       H      0.097550000000     0.522400000000     0.652450000000     0          
Zn1      Zn     0.103300000000     0.896700000000     0.853300000000     0          
O2       O      0.109050000000     0.933000000000     0.859050000000     0          
C1       C      0.125000000000     0.944350000000     0.875000000000     0          
C2       C      0.125000000000     0.973100000000     0.875000000000     0          
C3       C      0.108550000000     0.986550000000     0.858550000000     0          
H1       H      0.097550000000     0.977600000000     0.847550000000     0          
Zn1      Zn     0.103300000000     0.603300000000     0.853300000000     0          
O2       O      0.067000000000     0.609050000000     0.859050000000     0          
C1       C      0.055650000000     0.625000000000     0.875000000000     0          
C2       C      0.026900000000     0.625000000000     0.875000000000     0          
C3       C      0.013450000000     0.608550000000     0.858550000000     0          
H1       H      0.022400000000     0.597550000000     0.847550000000     0          
Zn1      Zn     0.396700000000     0.603300000000     0.853300000000     0          
O2       O      0.390950000000     0.567000000000     0.859050000000     0          
C1       C      0.375000000000     0.555650000000     0.875000000000     0          
C2       C      0.375000000000     0.526900000000     0.875000000000     0          
C3       C      0.391450000000     0.513450000000     0.858550000000     0          
H1       H      0.402450000000     0.522400000000     0.847550000000     0          
Zn1      Zn     0.396700000000     0.896700000000     0.853300000000     0          
O2       O      0.433000000000     0.890950000000     0.859050000000     0          
C1       C      0.444350000000     0.875000000000     0.875000000000     0          
C2       C      0.473100000000     0.875000000000     0.875000000000     0          
C3       C      0.486550000000     0.891450000000     0.858550000000     0          
H1       H      0.477600000000     0.902450000000     0.847550000000     0          
Zn1      Zn     0.396700000000     0.896700000000     0.646700000000     0          
O2       O      0.390950000000     0.933000000000     0.640950000000     0          
C1       C      0.375000000000     0.944350000000     0.625000000000     0          
C2       C      0.375000000000     0.973100000000     0.625000000000     0          
C3       C      0.391450000000     0.986550000000     0.641450000000     0          
H1       H      0.402450000000     0.977600000000     0.652450000000     0          
Zn1      Zn     0.103300000000     0.896700000000     0.646700000000     0          
O2       O      0.067000000000     0.890950000000     0.640950000000     0          
C1       C      0.055650000000     0.875000000000     0.625000000000     0          
C2       C      0.026900000000     0.875000000000     0.625000000000     0          
C3       C      0.013450000000     0.891450000000     0.641450000000     0          
H1       H      0.022400000000     0.902450000000     0.652450000000     0          
Zn1      Zn     0.396700000000     0.603300000000     0.646700000000     0          
O2       O      0.433000000000     0.609050000000     0.640950000000     0          
C1       C      0.444350000000     0.625000000000     0.625000000000     0          
C2       C      0.473100000000     0.625000000000     0.625000000000     0          
C3       C      0.486550000000     0.608550000000     0.641450000000     0          
H1       H      0.477600000000     0.597550000000     0.652450000000     0          
O2       O      0.359050000000     0.890950000000     0.933000000000     0          
C3       C      0.358550000000     0.891450000000     0.986550000000     0          
H1       H      0.347550000000     0.902450000000     0.977600000000     0          
O2       O      0.109050000000     0.859050000000     0.933000000000     0          
C3       C      0.108550000000     0.858550000000     0.986550000000     0          
H1       H      0.097550000000     0.847550000000     0.977600000000     0          
O2       O      0.140950000000     0.609050000000     0.933000000000     0          
C3       C      0.141450000000     0.608550000000     0.986550000000     0          
H1       H      0.152450000000     0.597550000000     0.977600000000     0          
O2       O      0.390950000000     0.640950000000     0.933000000000     0          
C3       C      0.391450000000     0.641450000000     0.986550000000     0          
H1       H      0.402450000000     0.652450000000     0.977600000000     0          
O2       O      0.359050000000     0.609050000000     0.567000000000     0          
C3       C      0.358550000000     0.608550000000     0.513450000000     0          
H1       H      0.347550000000     0.597550000000     0.522400000000     0          
O2       O      0.390950000000     0.859050000000     0.567000000000     0          
C3       C      0.391450000000     0.858550000000     0.513450000000     0          
H1       H      0.402450000000     0.847550000000     0.522400000000     0          
O2       O      0.140950000000     0.890950000000     0.567000000000     0          
C3       C      0.141450000000     0.891450000000     0.513450000000     0          
H1       H      0.152450000000     0.902450000000     0.522400000000     0          
O2       O      0.109050000000     0.640950000000     0.567000000000     0          
C3       C      0.108550000000     0.641450000000     0.513450000000     0          
H1       H      0.097550000000     0.652450000000     0.522400000000     0          
O2       O      0.433000000000     0.859050000000     0.890950000000     0          
C3       C      0.486550000000     0.858550000000     0.891450000000     0          
H1       H      0.477600000000     0.847550000000     0.902450000000     0          
O2       O      0.140950000000     0.933000000000     0.890950000000     0          
C3       C      0.141450000000     0.986550000000     0.891450000000     0          
H1       H      0.152450000000     0.977600000000     0.902450000000     0          
O2       O      0.067000000000     0.640950000000     0.890950000000     0          
C3       C      0.013450000000     0.641450000000     0.891450000000     0          
H1       H      0.022400000000     0.652450000000     0.902450000000     0          
O2       O      0.359050000000     0.567000000000     0.890950000000     0          
C3       C      0.358550000000     0.513450000000     0.891450000000     0          
H1       H      0.347550000000     0.522400000000     0.902450000000     0          
O2       O      0.433000000000     0.640950000000     0.609050000000     0          
C3       C      0.486550000000     0.641450000000     0.608550000000     0          
H1       H      0.477600000000     0.652450000000     0.597550000000     0          
O2       O      0.359050000000     0.933000000000     0.609050000000     0          
C3       C      0.358550000000     0.986550000000     0.608550000000     0          
H1       H      0.347550000000     0.977600000000     0.597550000000     0          
O2       O      0.067000000000     0.859050000000     0.609050000000     0          
C3       C      0.013450000000     0.858550000000     0.608550000000     0          
H1       H      0.022400000000     0.847550000000     0.597550000000     0          
O2       O      0.140950000000     0.567000000000     0.609050000000     0          
C3       C      0.141450000000     0.513450000000     0.608550000000     0          
H1       H      0.152450000000     0.522400000000     0.597550000000     0          
O2       O      0.390950000000     0.933000000000     0.859050000000     0          
C3       C      0.391450000000     0.986550000000     0.858550000000     0          
H1       H      0.402450000000     0.977600000000     0.847550000000     0          
O2       O      0.390950000000     0.567000000000     0.640950000000     0          
C3       C      0.391450000000     0.513450000000     0.641450000000     0          
H1       H      0.402450000000     0.522400000000     0.652450000000     0          
O2       O      0.433000000000     0.890950000000     0.640950000000     0          
C3       C      0.486550000000     0.891450000000     0.641450000000     0          
H1       H      0.477600000000     0.902450000000     0.652450000000     0          
O2       O      0.109050000000     0.933000000000     0.640950000000     0          
C3       C      0.108550000000     0.986550000000     0.641450000000     0          
H1       H      0.097550000000     0.977600000000     0.652450000000     0          
O2       O      0.067000000000     0.609050000000     0.640950000000     0          
C3       C      0.013450000000     0.608550000000     0.641450000000     0          
H1       H      0.022400000000     0.597550000000     0.652450000000     0          
O2       O      0.109050000000     0.567000000000     0.859050000000     0          
C3       C      0.108550000000     0.513450000000     0.858550000000     0          
H1       H      0.097550000000     0.522400000000     0.847550000000     0          
O2       O      0.433000000000     0.609050000000     0.859050000000     0          
C3       C      0.486550000000     0.608550000000     0.858550000000     0          
H1       H      0.477600000000     0.597550000000     0.847550000000     0          
O2       O      0.067000000000     0.890950000000     0.859050000000     0          
C3       C      0.013450000000     0.891450000000     0.858550000000     0          
H1       H      0.022400000000     0.902450000000     0.847550000000     0          
Zn1      Zn     0.146700000000     0.853300000000     0.853300000000     0          
O2       O      0.140950000000     0.859050000000     0.817000000000     0          
C1       C      0.125000000000     0.875000000000     0.805650000000     0          
C2       C      0.125000000000     0.875000000000     0.776900000000     0          
C3       C      0.141450000000     0.858550000000     0.763450000000     0          
H1       H      0.152450000000     0.847550000000     0.772400000000     0          
O2       O      0.390950000000     0.890950000000     0.817000000000     0          
C1       C      0.375000000000     0.875000000000     0.805650000000     0          
C2       C      0.375000000000     0.875000000000     0.776900000000     0          
C3       C      0.391450000000     0.891450000000     0.763450000000     0          
H1       H      0.402450000000     0.902450000000     0.772400000000     0          
Zn1      Zn     0.353300000000     0.646700000000     0.853300000000     0          
O2       O      0.359050000000     0.640950000000     0.817000000000     0          
C1       C      0.375000000000     0.625000000000     0.805650000000     0          
C2       C      0.375000000000     0.625000000000     0.776900000000     0          
C3       C      0.358550000000     0.641450000000     0.763450000000     0          
H1       H      0.347550000000     0.652450000000     0.772400000000     0          
O2       O      0.109050000000     0.609050000000     0.817000000000     0          
C1       C      0.125000000000     0.625000000000     0.805650000000     0          
C2       C      0.125000000000     0.625000000000     0.776900000000     0          
C3       C      0.108550000000     0.608550000000     0.763450000000     0          
H1       H      0.097550000000     0.597550000000     0.772400000000     0          
Zn1      Zn     0.146700000000     0.646700000000     0.646700000000     0          
O2       O      0.140950000000     0.640950000000     0.683000000000     0          
C1       C      0.125000000000     0.625000000000     0.694350000000     0          
C2       C      0.125000000000     0.625000000000     0.723100000000     0          
C3       C      0.141450000000     0.641450000000     0.736550000000     0          
H1       H      0.152450000000     0.652450000000     0.727600000000     0          
O2       O      0.109050000000     0.890950000000     0.683000000000     0          
C1       C      0.125000000000     0.875000000000     0.694350000000     0          
C2       C      0.125000000000     0.875000000000     0.723100000000     0          
C3       C      0.108550000000     0.891450000000     0.736550000000     0          
H1       H      0.097550000000     0.902450000000     0.727600000000     0          
Zn1      Zn     0.353300000000     0.853300000000     0.646700000000     0          
O2       O      0.359050000000     0.859050000000     0.683000000000     0          
C1       C      0.375000000000     0.875000000000     0.694350000000     0          
C2       C      0.375000000000     0.875000000000     0.723100000000     0          
C3       C      0.358550000000     0.858550000000     0.736550000000     0          
H1       H      0.347550000000     0.847550000000     0.727600000000     0          
O2       O      0.390950000000     0.609050000000     0.683000000000     0          
C1       C      0.375000000000     0.625000000000     0.694350000000     0          
C2       C      0.375000000000     0.625000000000     0.723100000000     0          
C3       C      0.391450000000     0.608550000000     0.736550000000     0          
H1       H      0.402450000000     0.597550000000     0.727600000000     0          
Zn1      Zn     0.353300000000     0.853300000000     0.853300000000     0          
O2       O      0.359050000000     0.817000000000     0.859050000000     0          
C1       C      0.375000000000     0.805650000000     0.875000000000     0          
C2       C      0.375000000000     0.776900000000     0.875000000000     0          
C3       C      0.358550000000     0.763450000000     0.858550000000     0          
H1       H      0.347550000000     0.772400000000     0.847550000000     0          
Zn1      Zn     0.146700000000     0.646700000000     0.853300000000     0          
O2       O      0.140950000000     0.683000000000     0.859050000000     0          
C1       C      0.125000000000     0.694350000000     0.875000000000     0          
C2       C      0.125000000000     0.723100000000     0.875000000000     0          
C3       C      0.141450000000     0.736550000000     0.858550000000     0          
H1       H      0.152450000000     0.727600000000     0.847550000000     0          
Zn1      Zn     0.146700000000     0.853300000000     0.646700000000     0          
O2       O      0.140950000000     0.817000000000     0.640950000000     0          
C1       C      0.125000000000     0.805650000000     0.625000000000     0          
C2       C      0.125000000000     0.776900000000     0.625000000000     0          
C3       C      0.141450000000     0.763450000000     0.641450000000     0          
H1       H      0.152450000000     0.772400000000     0.652450000000     0          
Zn1      Zn     0.353300000000     0.646700000000     0.646700000000     0          
O2       O      0.359050000000     0.683000000000     0.640950000000     0          
C1       C      0.375000000000     0.694350000000     0.625000000000     0          
C2       C      0.375000000000     0.723100000000     0.625000000000     0          
C3       C      0.358550000000     0.736550000000     0.641450000000     0          
H1       H      0.347550000000     0.727600000000     0.652450000000     0          
O2       O      0.109050000000     0.817000000000     0.890950000000     0          
C1       C      0.125000000000     0.805650000000     0.875000000000     0          
C2       C      0.125000000000     0.776900000000     0.875000000000     0          
C3       C      0.108550000000     0.763450000000     0.891450000000     0          
H1       H      0.097550000000     0.772400000000     0.902450000000     0          
O2       O      0.109050000000     0.683000000000     0.609050000000     0          
C1       C      0.125000000000     0.694350000000     0.625000000000     0          
C2       C      0.125000000000     0.723100000000     0.625000000000     0          
C3       C      0.108550000000     0.736550000000     0.608550000000     0          
H1       H      0.097550000000     0.727600000000     0.597550000000     0          
O2       O      0.390950000000     0.817000000000     0.609050000000     0          
C1       C      0.375000000000     0.805650000000     0.625000000000     0          
C2       C      0.375000000000     0.776900000000     0.625000000000     0          
C3       C      0.391450000000     0.763450000000     0.608550000000     0          
H1       H      0.402450000000     0.772400000000     0.597550000000     0          
O2       O      0.390950000000     0.683000000000     0.890950000000     0          
C1       C      0.375000000000     0.694350000000     0.875000000000     0          
C2       C      0.375000000000     0.723100000000     0.875000000000     0          
C3       C      0.391450000000     0.736550000000     0.891450000000     0          
H1       H      0.402450000000     0.727600000000     0.902450000000     0          
O2       O      0.359050000000     0.640950000000     0.683000000000     0          
C3       C      0.358550000000     0.641450000000     0.736550000000     0          
H1       H      0.347550000000     0.652450000000     0.727600000000     0          
O2       O      0.109050000000     0.609050000000     0.683000000000     0          
C3       C      0.108550000000     0.608550000000     0.736550000000     0          
H1       H      0.097550000000     0.597550000000     0.727600000000     0          
O2       O      0.140950000000     0.859050000000     0.683000000000     0          
C3       C      0.141450000000     0.858550000000     0.736550000000     0          
H1       H      0.152450000000     0.847550000000     0.727600000000     0          
O2       O      0.390950000000     0.890950000000     0.683000000000     0          
C3       C      0.391450000000     0.891450000000     0.736550000000     0          
H1       H      0.402450000000     0.902450000000     0.727600000000     0          
O2       O      0.359050000000     0.859050000000     0.817000000000     0          
C3       C      0.358550000000     0.858550000000     0.763450000000     0          
H1       H      0.347550000000     0.847550000000     0.772400000000     0          
O2       O      0.390950000000     0.609050000000     0.817000000000     0          
C3       C      0.391450000000     0.608550000000     0.763450000000     0          
H1       H      0.402450000000     0.597550000000     0.772400000000     0          
O2       O      0.140950000000     0.640950000000     0.817000000000     0          
C3       C      0.141450000000     0.641450000000     0.763450000000     0          
H1       H      0.152450000000     0.652450000000     0.772400000000     0          
O2       O      0.109050000000     0.890950000000     0.817000000000     0          
C3       C      0.108550000000     0.891450000000     0.763450000000     0          
H1       H      0.097550000000     0.902450000000     0.772400000000     0          
O2       O      0.140950000000     0.683000000000     0.640950000000     0          
C3       C      0.141450000000     0.736550000000     0.641450000000     0          
H1       H      0.152450000000     0.727600000000     0.652450000000     0          
O2       O      0.359050000000     0.817000000000     0.640950000000     0          
C3       C      0.358550000000     0.763450000000     0.641450000000     0          
H1       H      0.347550000000     0.772400000000     0.652450000000     0          
O2       O      0.359050000000     0.683000000000     0.859050000000     0          
C3       C      0.358550000000     0.736550000000     0.858550000000     0          
H1       H      0.347550000000     0.727600000000     0.847550000000     0          
O2       O      0.140950000000     0.817000000000     0.859050000000     0          
C3       C      0.141450000000     0.763450000000     0.858550000000     0          
H1       H      0.152450000000     0.772400000000     0.847550000000     0          
O2       O      0.390950000000     0.683000000000     0.609050000000     0          
C3       C      0.391450000000     0.736550000000     0.608550000000     0          
H1       H      0.402450000000     0.727600000000     0.597550000000     0          
O2       O      0.390950000000     0.817000000000     0.890950000000     0          
C3       C      0.391450000000     0.763450000000     0.891450000000     0          
H1       H      0.402450000000     0.772400000000     0.902450000000     0          
O2       O      0.109050000000     0.683000000000     0.890950000000     0          
C3       C      0.108550000000     0.736550000000     0.891450000000     0          
H1       H      0.097550000000     0.727600000000     0.902450000000     0          
O2       O      0.109050000000     0.817000000000     0.609050000000     0          
C3       C      0.108550000000     0.763450000000     0.608550000000     0          
H1       H      0.097550000000     0.772400000000     0.597550000000     0          
O2       O      0.317000000000     0.640950000000     0.859050000000     0          
C1       C      0.305650000000     0.625000000000     0.875000000000     0          
C2       C      0.276900000000     0.625000000000     0.875000000000     0          
C3       C      0.263450000000     0.641450000000     0.858550000000     0          
H1       H      0.272400000000     0.652450000000     0.847550000000     0          
O2       O      0.183000000000     0.859050000000     0.859050000000     0          
C1       C      0.194350000000     0.875000000000     0.875000000000     0          
C2       C      0.223100000000     0.875000000000     0.875000000000     0          
C3       C      0.236550000000     0.858550000000     0.858550000000     0          
H1       H      0.227600000000     0.847550000000     0.847550000000     0          
O2       O      0.317000000000     0.859050000000     0.640950000000     0          
C1       C      0.305650000000     0.875000000000     0.625000000000     0          
C2       C      0.276900000000     0.875000000000     0.625000000000     0          
C3       C      0.263450000000     0.858550000000     0.641450000000     0          
H1       H      0.272400000000     0.847550000000     0.652450000000     0          
O2       O      0.183000000000     0.640950000000     0.640950000000     0          
C1       C      0.194350000000     0.625000000000     0.625000000000     0          
C2       C      0.223100000000     0.625000000000     0.625000000000     0          
C3       C      0.236550000000     0.641450000000     0.641450000000     0          
H1       H      0.227600000000     0.652450000000     0.652450000000     0          
O2       O      0.317000000000     0.609050000000     0.609050000000     0          
C1       C      0.305650000000     0.625000000000     0.625000000000     0          
C2       C      0.276900000000     0.625000000000     0.625000000000     0          
C3       C      0.263450000000     0.608550000000     0.608550000000     0          
H1       H      0.272400000000     0.597550000000     0.597550000000     0          
O2       O      0.183000000000     0.890950000000     0.609050000000     0          
C1       C      0.194350000000     0.875000000000     0.625000000000     0          
C2       C      0.223100000000     0.875000000000     0.625000000000     0          
C3       C      0.236550000000     0.891450000000     0.608550000000     0          
H1       H      0.227600000000     0.902450000000     0.597550000000     0          
O2       O      0.317000000000     0.890950000000     0.890950000000     0          
C1       C      0.305650000000     0.875000000000     0.875000000000     0          
C2       C      0.276900000000     0.875000000000     0.875000000000     0          
C3       C      0.263450000000     0.891450000000     0.891450000000     0          
H1       H      0.272400000000     0.902450000000     0.902450000000     0          
O2       O      0.183000000000     0.609050000000     0.890950000000     0          
C1       C      0.194350000000     0.625000000000     0.875000000000     0          
C2       C      0.223100000000     0.625000000000     0.875000000000     0          
C3       C      0.236550000000     0.608550000000     0.891450000000     0          
H1       H      0.227600000000     0.597550000000     0.902450000000     0          
O2       O      0.183000000000     0.859050000000     0.640950000000     0          
C3       C      0.236550000000     0.858550000000     0.641450000000     0          
H1       H      0.227600000000     0.847550000000     0.652450000000     0          
O2       O      0.317000000000     0.640950000000     0.640950000000     0          
C3       C      0.263450000000     0.641450000000     0.641450000000     0          
H1       H      0.272400000000     0.652450000000     0.652450000000     0          
O2       O      0.183000000000     0.640950000000     0.859050000000     0          
C3       C      0.236550000000     0.641450000000     0.858550000000     0          
H1       H      0.227600000000     0.652450000000     0.847550000000     0          
O2       O      0.317000000000     0.859050000000     0.859050000000     0          
C3       C      0.263450000000     0.858550000000     0.858550000000     0          
H1       H      0.272400000000     0.847550000000     0.847550000000     0          
O2       O      0.183000000000     0.890950000000     0.890950000000     0          
C3       C      0.236550000000     0.891450000000     0.891450000000     0          
H1       H      0.227600000000     0.902450000000     0.902450000000     0          
O2       O      0.317000000000     0.609050000000     0.890950000000     0          
C3       C      0.263450000000     0.608550000000     0.891450000000     0          
H1       H      0.272400000000     0.597550000000     0.902450000000     0          
O2       O      0.183000000000     0.609050000000     0.609050000000     0          
C3       C      0.236550000000     0.608550000000     0.608550000000     0          
H1       H      0.227600000000     0.597550000000     0.597550000000     0          
O2       O      0.317000000000     0.890950000000     0.609050000000     0          
C3       C      0.263450000000     0.891450000000     0.608550000000     0          
H1       H      0.272400000000     0.902450000000     0.597550000000     0          
Zn1      Zn     0.646700000000     0.103300000000     0.103300000000     0          
O1       O      0.625000000000     0.125000000000     0.125000000000     0          
O2       O      0.640950000000     0.109050000000     0.067000000000     0          
C1       C      0.625000000000     0.125000000000     0.055650000000     0          
C2       C      0.625000000000     0.125000000000     0.026900000000     0          
C3       C      0.641450000000     0.108550000000     0.013450000000     0          
H1       H      0.652450000000     0.097550000000     0.022400000000     0          
Zn1      Zn     0.896700000000     0.146700000000     0.103300000000     0          
O1       O      0.875000000000     0.125000000000     0.125000000000     0          
O2       O      0.890950000000     0.140950000000     0.067000000000     0          
C1       C      0.875000000000     0.125000000000     0.055650000000     0          
C2       C      0.875000000000     0.125000000000     0.026900000000     0          
C3       C      0.891450000000     0.141450000000     0.013450000000     0          
H1       H      0.902450000000     0.152450000000     0.022400000000     0          
Zn1      Zn     0.853300000000     0.396700000000     0.103300000000     0          
O1       O      0.875000000000     0.375000000000     0.125000000000     0          
O2       O      0.859050000000     0.390950000000     0.067000000000     0          
C1       C      0.875000000000     0.375000000000     0.055650000000     0          
C2       C      0.875000000000     0.375000000000     0.026900000000     0          
C3       C      0.858550000000     0.391450000000     0.013450000000     0          
H1       H      0.847550000000     0.402450000000     0.022400000000     0          
Zn1      Zn     0.603300000000     0.353300000000     0.103300000000     0          
O1       O      0.625000000000     0.375000000000     0.125000000000     0          
O2       O      0.609050000000     0.359050000000     0.067000000000     0          
C1       C      0.625000000000     0.375000000000     0.055650000000     0          
C2       C      0.625000000000     0.375000000000     0.026900000000     0          
C3       C      0.608550000000     0.358550000000     0.013450000000     0          
H1       H      0.597550000000     0.347550000000     0.022400000000     0          
Zn1      Zn     0.646700000000     0.396700000000     0.396700000000     0          
O1       O      0.625000000000     0.375000000000     0.375000000000     0          
O2       O      0.640950000000     0.390950000000     0.433000000000     0          
C1       C      0.625000000000     0.375000000000     0.444350000000     0          
C2       C      0.625000000000     0.375000000000     0.473100000000     0          
C3       C      0.641450000000     0.391450000000     0.486550000000     0          
H1       H      0.652450000000     0.402450000000     0.477600000000     0          
Zn1      Zn     0.603300000000     0.146700000000     0.396700000000     0          
O1       O      0.625000000000     0.125000000000     0.375000000000     0          
O2       O      0.609050000000     0.140950000000     0.433000000000     0          
C1       C      0.625000000000     0.125000000000     0.444350000000     0          
C2       C      0.625000000000     0.125000000000     0.473100000000     0          
C3       C      0.608550000000     0.141450000000     0.486550000000     0          
H1       H      0.597550000000     0.152450000000     0.477600000000     0          
Zn1      Zn     0.853300000000     0.103300000000     0.396700000000     0          
O1       O      0.875000000000     0.125000000000     0.375000000000     0          
O2       O      0.859050000000     0.109050000000     0.433000000000     0          
C1       C      0.875000000000     0.125000000000     0.444350000000     0          
C2       C      0.875000000000     0.125000000000     0.473100000000     0          
C3       C      0.858550000000     0.108550000000     0.486550000000     0          
H1       H      0.847550000000     0.097550000000     0.477600000000     0          
Zn1      Zn     0.896700000000     0.353300000000     0.396700000000     0          
O1       O      0.875000000000     0.375000000000     0.375000000000     0          
O2       O      0.890950000000     0.359050000000     0.433000000000     0          
C1       C      0.875000000000     0.375000000000     0.444350000000     0          
C2       C      0.875000000000     0.375000000000     0.473100000000     0          
C3       C      0.891450000000     0.358550000000     0.486550000000     0          
H1       H      0.902450000000     0.347550000000     0.477600000000     0          
Zn1      Zn     0.603300000000     0.146700000000     0.103300000000     0          
O2       O      0.567000000000     0.140950000000     0.109050000000     0          
C1       C      0.555650000000     0.125000000000     0.125000000000     0          
C2       C      0.526900000000     0.125000000000     0.125000000000     0          
C3       C      0.513450000000     0.141450000000     0.108550000000     0          
H1       H      0.522400000000     0.152450000000     0.097550000000     0          
Zn1      Zn     0.853300000000     0.103300000000     0.103300000000     0          
O2       O      0.859050000000     0.067000000000     0.109050000000     0          
C1       C      0.875000000000     0.055650000000     0.125000000000     0          
C2       C      0.875000000000     0.026900000000     0.125000000000     0          
C3       C      0.858550000000     0.013450000000     0.108550000000     0          
H1       H      0.847550000000     0.022400000000     0.097550000000     0          
Zn1      Zn     0.896700000000     0.353300000000     0.103300000000     0          
O2       O      0.933000000000     0.359050000000     0.109050000000     0          
C1       C      0.944350000000     0.375000000000     0.125000000000     0          
C2       C      0.973100000000     0.375000000000     0.125000000000     0          
C3       C      0.986550000000     0.358550000000     0.108550000000     0          
H1       H      0.977600000000     0.347550000000     0.097550000000     0          
Zn1      Zn     0.646700000000     0.396700000000     0.103300000000     0          
O2       O      0.640950000000     0.433000000000     0.109050000000     0          
C1       C      0.625000000000     0.444350000000     0.125000000000     0          
C2       C      0.625000000000     0.473100000000     0.125000000000     0          
C3       C      0.641450000000     0.486550000000     0.108550000000     0          
H1       H      0.652450000000     0.477600000000     0.097550000000     0          
Zn1      Zn     0.603300000000     0.353300000000     0.396700000000     0          
O2       O      0.567000000000     0.359050000000     0.390950000000     0          
C1       C      0.555650000000     0.375000000000     0.375000000000     0          
C2       C      0.526900000000     0.375000000000     0.375000000000     0          
C3       C      0.513450000000     0.358550000000     0.391450000000     0          
H1       H      0.522400000000     0.347550000000     0.402450000000     0          
Zn1      Zn     0.646700000000     0.103300000000     0.396700000000     0          
O2       O      0.640950000000     0.067000000000     0.390950000000     0          
C1       C      0.625000000000     0.055650000000     0.375000000000     0          
C2       C      0.625000000000     0.026900000000     0.375000000000     0          
C3       C      0.641450000000     0.013450000000     0.391450000000     0          
H1       H      0.652450000000     0.022400000000     0.402450000000     0          
Zn1      Zn     0.896700000000     0.146700000000     0.396700000000     0          
O2       O      0.933000000000     0.140950000000     0.390950000000     0          
C1       C      0.944350000000     0.125000000000     0.375000000000     0          
C2       C      0.973100000000     0.125000000000     0.375000000000     0          
C3       C      0.986550000000     0.141450000000     0.391450000000     0          
H1       H      0.977600000000     0.152450000000     0.402450000000     0          
Zn1      Zn     0.853300000000     0.396700000000     0.396700000000     0          
O2       O      0.859050000000     0.433000000000     0.390950000000     0          
C1       C      0.875000000000     0.444350000000     0.375000000000     0          
C2       C      0.875000000000     0.473100000000     0.375000000000     0          
C3       C      0.858550000000     0.486550000000     0.391450000000     0          
H1       H      0.847550000000     0.477600000000     0.402450000000     0          
Zn1      Zn     0.603300000000     0.103300000000     0.146700000000     0          
O2       O      0.609050000000     0.067000000000     0.140950000000     0          
C1       C      0.625000000000     0.055650000000     0.125000000000     0          
C2       C      0.625000000000     0.026900000000     0.125000000000     0          
C3       C      0.608550000000     0.013450000000     0.141450000000     0          
H1       H      0.597550000000     0.022400000000     0.152450000000     0          
Zn1      Zn     0.603300000000     0.396700000000     0.353300000000     0          
O2       O      0.609050000000     0.433000000000     0.359050000000     0          
C1       C      0.625000000000     0.444350000000     0.375000000000     0          
C2       C      0.625000000000     0.473100000000     0.375000000000     0          
C3       C      0.608550000000     0.486550000000     0.358550000000     0          
H1       H      0.597550000000     0.477600000000     0.347550000000     0          
Zn1      Zn     0.603300000000     0.103300000000     0.353300000000     0          
O2       O      0.567000000000     0.109050000000     0.359050000000     0          
C1       C      0.555650000000     0.125000000000     0.375000000000     0          
C2       C      0.526900000000     0.125000000000     0.375000000000     0          
C3       C      0.513450000000     0.108550000000     0.358550000000     0          
H1       H      0.522400000000     0.097550000000     0.347550000000     0          
Zn1      Zn     0.896700000000     0.103300000000     0.353300000000     0          
O2       O      0.890950000000     0.067000000000     0.359050000000     0          
C1       C      0.875000000000     0.055650000000     0.375000000000     0          
C2       C      0.875000000000     0.026900000000     0.375000000000     0          
C3       C      0.891450000000     0.013450000000     0.358550000000     0          
H1       H      0.902450000000     0.022400000000     0.347550000000     0          
Zn1      Zn     0.896700000000     0.396700000000     0.353300000000     0          
O2       O      0.933000000000     0.390950000000     0.359050000000     0          
C1       C      0.944350000000     0.375000000000     0.375000000000     0          
C2       C      0.973100000000     0.375000000000     0.375000000000     0          
C3       C      0.986550000000     0.391450000000     0.358550000000     0          
H1       H      0.977600000000     0.402450000000     0.347550000000     0          
Zn1      Zn     0.896700000000     0.396700000000     0.146700000000     0          
O2       O      0.890950000000     0.433000000000     0.140950000000     0          
C1       C      0.875000000000     0.444350000000     0.125000000000     0          
C2       C      0.875000000000     0.473100000000     0.125000000000     0          
C3       C      0.891450000000     0.486550000000     0.141450000000     0          
H1       H      0.902450000000     0.477600000000     0.152450000000     0          
Zn1      Zn     0.603300000000     0.396700000000     0.146700000000     0          
O2       O      0.567000000000     0.390950000000     0.140950000000     0          
C1       C      0.555650000000     0.375000000000     0.125000000000     0          
C2       C      0.526900000000     0.375000000000     0.125000000000     0          
C3       C      0.513450000000     0.391450000000     0.141450000000     0          
H1       H      0.522400000000     0.402450000000     0.152450000000     0          
Zn1      Zn     0.896700000000     0.103300000000     0.146700000000     0          
O2       O      0.933000000000     0.109050000000     0.140950000000     0          
C1       C      0.944350000000     0.125000000000     0.125000000000     0          
C2       C      0.973100000000     0.125000000000     0.125000000000     0          
C3       C      0.986550000000     0.108550000000     0.141450000000     0          
H1       H      0.977600000000     0.097550000000     0.152450000000     0          
O2       O      0.859050000000     0.390950000000     0.433000000000     0          
C3       C      0.858550000000     0.391450000000     0.486550000000     0          
H1       H      0.847550000000     0.402450000000     0.477600000000     0          
O2       O      0.609050000000     0.359050000000     0.433000000000     0          
C3       C      0.608550000000     0.358550000000     0.486550000000     0          
H1       H      0.597550000000     0.347550000000     0.477600000000     0          
O2       O      0.640950000000     0.109050000000     0.433000000000     0          
C3       C      0.641450000000     0.108550000000     0.486550000000     0          
H1       H      0.652450000000     0.097550000000     0.477600000000     0          
O2       O      0.890950000000     0.140950000000     0.433000000000     0          
C3       C      0.891450000000     0.141450000000     0.486550000000     0          
H1       H      0.902450000000     0.152450000000     0.477600000000     0          
O2       O      0.859050000000     0.109050000000     0.067000000000     0          
C3       C      0.858550000000     0.108550000000     0.013450000000     0          
H1       H      0.847550000000     0.097550000000     0.022400000000     0          
O2       O      0.890950000000     0.359050000000     0.067000000000     0          
C3       C      0.891450000000     0.358550000000     0.013450000000     0          
H1       H      0.902450000000     0.347550000000     0.022400000000     0          
O2       O      0.640950000000     0.390950000000     0.067000000000     0          
C3       C      0.641450000000     0.391450000000     0.013450000000     0          
H1       H      0.652450000000     0.402450000000     0.022400000000     0          
O2       O      0.609050000000     0.140950000000     0.067000000000     0          
C3       C      0.608550000000     0.141450000000     0.013450000000     0          
H1       H      0.597550000000     0.152450000000     0.022400000000     0          
O2       O      0.933000000000     0.359050000000     0.390950000000     0          
C3       C      0.986550000000     0.358550000000     0.391450000000     0          
H1       H      0.977600000000     0.347550000000     0.402450000000     0          
O2       O      0.640950000000     0.433000000000     0.390950000000     0          
C3       C      0.641450000000     0.486550000000     0.391450000000     0          
H1       H      0.652450000000     0.477600000000     0.402450000000     0          
O2       O      0.567000000000     0.140950000000     0.390950000000     0          
C3       C      0.513450000000     0.141450000000     0.391450000000     0          
H1       H      0.522400000000     0.152450000000     0.402450000000     0          
O2       O      0.859050000000     0.067000000000     0.390950000000     0          
C3       C      0.858550000000     0.013450000000     0.391450000000     0          
H1       H      0.847550000000     0.022400000000     0.402450000000     0          
O2       O      0.933000000000     0.140950000000     0.109050000000     0          
C3       C      0.986550000000     0.141450000000     0.108550000000     0          
H1       H      0.977600000000     0.152450000000     0.097550000000     0          
O2       O      0.859050000000     0.433000000000     0.109050000000     0          
C3       C      0.858550000000     0.486550000000     0.108550000000     0          
H1       H      0.847550000000     0.477600000000     0.097550000000     0          
O2       O      0.567000000000     0.359050000000     0.109050000000     0          
C3       C      0.513450000000     0.358550000000     0.108550000000     0          
H1       H      0.522400000000     0.347550000000     0.097550000000     0          
O2       O      0.640950000000     0.067000000000     0.109050000000     0          
C3       C      0.641450000000     0.013450000000     0.108550000000     0          
H1       H      0.652450000000     0.022400000000     0.097550000000     0          
O2       O      0.890950000000     0.433000000000     0.359050000000     0          
C3       C      0.891450000000     0.486550000000     0.358550000000     0          
H1       H      0.902450000000     0.477600000000     0.347550000000     0          
O2       O      0.890950000000     0.067000000000     0.140950000000     0          
C3       C      0.891450000000     0.013450000000     0.141450000000     0          
H1       H      0.902450000000     0.022400000000     0.152450000000     0          
O2       O      0.933000000000     0.390950000000     0.140950000000     0          
C3       C      0.986550000000     0.391450000000     0.141450000000     0          
H1       H      0.977600000000     0.402450000000     0.152450000000     0          
O2       O      0.609050000000     0.433000000000     0.140950000000     0          
C3       C      0.608550000000     0.486550000000     0.141450000000     0          
H1       H      0.597550000000     0.477600000000     0.152450000000     0          
O2       O      0.567000000000     0.109050000000     0.140950000000     0          
C3       C      0.513450000000     0.108550000000     0.141450000000     0          
H1       H      0.522400000000     0.097550000000     0.152450000000     0          
O2       O      0.609050000000     0.067000000000     0.359050000000     0          
C3       C      0.608550000000     0.013450000000     0.358550000000     0          
H1       H      0.597550000000     0.022400000000     0.347550000000     0          
O2       O      0.933000000000     0.109050000000     0.359050000000     0          
C3       C      0.986550000000     0.108550000000     0.358550000000     0          
H1       H      0.977600000000     0.097550000000     0.347550000000     0          
O2       O      0.567000000000     0.390950000000     0.359050000000     0          
C3       C      0.513450000000     0.391450000000     0.358550000000     0          
H1       H      0.522400000000     0.402450000000     0.347550000000     0          
Zn1      Zn     0.646700000000     0.353300000000     0.353300000000     0          
O2       O      0.640950000000     0.359050000000     0.317000000000     0          
C1       C      0.625000000000     0.375000000000     0.305650000000     0          
C2       C      0.625000000000     0.375000000000     0.276900000000     0          
C3       C      0.641450000000     0.358550000000     0.263450000000     0          
H1       H      0.652450000000     0.347550000000     0.272400000000     0          
O2       O      0.890950000000     0.390950000000     0.317000000000     0          
C1       C      0.875000000000     0.375000000000     0.305650000000     0          
C2       C      0.875000000000     0.375000000000     0.276900000000     0          
C3       C      0.891450000000     0.391450000000     0.263450000000     0          
H1       H      0.902450000000     0.402450000000     0.272400000000     0          
Zn1      Zn     0.853300000000     0.146700000000     0.353300000000     0          
O2       O      0.859050000000     0.140950000000     0.317000000000     0          
C1       C      0.875000000000     0.125000000000     0.305650000000     0          
C2       C      0.875000000000     0.125000000000     0.276900000000     0          
C3       C      0.858550000000     0.141450000000     0.263450000000     0          
H1       H      0.847550000000     0.152450000000     0.272400000000     0          
O2       O      0.609050000000     0.109050000000     0.317000000000     0          
C1       C      0.625000000000     0.125000000000     0.305650000000     0          
C2       C      0.625000000000     0.125000000000     0.276900000000     0          
C3       C      0.608550000000     0.108550000000     0.263450000000     0          
H1       H      0.597550000000     0.097550000000     0.272400000000     0          
Zn1      Zn     0.646700000000     0.146700000000     0.146700000000     0          
O2       O      0.640950000000     0.140950000000     0.183000000000     0          
C1       C      0.625000000000     0.125000000000     0.194350000000     0          
C2       C      0.625000000000     0.125000000000     0.223100000000     0          
C3       C      0.641450000000     0.141450000000     0.236550000000     0          
H1       H      0.652450000000     0.152450000000     0.227600000000     0          
O2       O      0.609050000000     0.390950000000     0.183000000000     0          
C1       C      0.625000000000     0.375000000000     0.194350000000     0          
C2       C      0.625000000000     0.375000000000     0.223100000000     0          
C3       C      0.608550000000     0.391450000000     0.236550000000     0          
H1       H      0.597550000000     0.402450000000     0.227600000000     0          
Zn1      Zn     0.853300000000     0.353300000000     0.146700000000     0          
O2       O      0.859050000000     0.359050000000     0.183000000000     0          
C1       C      0.875000000000     0.375000000000     0.194350000000     0          
C2       C      0.875000000000     0.375000000000     0.223100000000     0          
C3       C      0.858550000000     0.358550000000     0.236550000000     0          
H1       H      0.847550000000     0.347550000000     0.227600000000     0          
O2       O      0.890950000000     0.109050000000     0.183000000000     0          
C1       C      0.875000000000     0.125000000000     0.194350000000     0          
C2       C      0.875000000000     0.125000000000     0.223100000000     0          
C3       C      0.891450000000     0.108550000000     0.236550000000     0          
H1       H      0.902450000000     0.097550000000     0.227600000000     0          
Zn1      Zn     0.853300000000     0.353300000000     0.353300000000     0          
O2       O      0.859050000000     0.317000000000     0.359050000000     0          
C1       C      0.875000000000     0.305650000000     0.375000000000     0          
C2       C      0.875000000000     0.276900000000     0.375000000000     0          
C3       C      0.858550000000     0.263450000000     0.358550000000     0          
H1       H      0.847550000000     0.272400000000     0.347550000000     0          
Zn1      Zn     0.646700000000     0.146700000000     0.353300000000     0          
O2       O      0.640950000000     0.183000000000     0.359050000000     0          
C1       C      0.625000000000     0.194350000000     0.375000000000     0          
C2       C      0.625000000000     0.223100000000     0.375000000000     0          
C3       C      0.641450000000     0.236550000000     0.358550000000     0          
H1       H      0.652450000000     0.227600000000     0.347550000000     0          
Zn1      Zn     0.646700000000     0.353300000000     0.146700000000     0          
O2       O      0.640950000000     0.317000000000     0.140950000000     0          
C1       C      0.625000000000     0.305650000000     0.125000000000     0          
C2       C      0.625000000000     0.276900000000     0.125000000000     0          
C3       C      0.641450000000     0.263450000000     0.141450000000     0          
H1       H      0.652450000000     0.272400000000     0.152450000000     0          
Zn1      Zn     0.853300000000     0.146700000000     0.146700000000     0          
O2       O      0.859050000000     0.183000000000     0.140950000000     0          
C1       C      0.875000000000     0.194350000000     0.125000000000     0          
C2       C      0.875000000000     0.223100000000     0.125000000000     0          
C3       C      0.858550000000     0.236550000000     0.141450000000     0          
H1       H      0.847550000000     0.227600000000     0.152450000000     0          
O2       O      0.609050000000     0.317000000000     0.390950000000     0          
C1       C      0.625000000000     0.305650000000     0.375000000000     0          
C2       C      0.625000000000     0.276900000000     0.375000000000     0          
C3       C      0.608550000000     0.263450000000     0.391450000000     0          
H1       H      0.597550000000     0.272400000000     0.402450000000     0          
O2       O      0.609050000000     0.183000000000     0.109050000000     0          
C1       C      0.625000000000     0.194350000000     0.125000000000     0          
C2       C      0.625000000000     0.223100000000     0.125000000000     0          
C3       C      0.608550000000     0.236550000000     0.108550000000     0          
H1       H      0.597550000000     0.227600000000     0.097550000000     0          
O2       O      0.890950000000     0.317000000000     0.109050000000     0          
C1       C      0.875000000000     0.305650000000     0.125000000000     0          
C2       C      0.875000000000     0.276900000000     0.125000000000     0          
C3       C      0.891450000000     0.263450000000     0.108550000000     0          
H1       H      0.902450000000     0.272400000000     0.097550000000     0          
O2       O      0.890950000000     0.183000000000     0.390950000000     0          
C1       C      0.875000000000     0.194350000000     0.375000000000     0          
C2       C      0.875000000000     0.223100000000     0.375000000000     0          
C3       C      0.891450000000     0.236550000000     0.391450000000     0          
H1       H      0.902450000000     0.227600000000     0.402450000000     0          
O2       O      0.859050000000     0.140950000000     0.183000000000     0          
C3       C      0.858550000000     0.141450000000     0.236550000000     0          
H1       H      0.847550000000     0.152450000000     0.227600000000     0          
O2       O      0.609050000000     0.109050000000     0.183000000000     0          
C3       C      0.608550000000     0.108550000000     0.236550000000     0          
H1       H      0.597550000000     0.097550000000     0.227600000000     0          
O2       O      0.640950000000     0.359050000000     0.183000000000     0          
C3       C      0.641450000000     0.358550000000     0.236550000000     0          
H1       H      0.652450000000     0.347550000000     0.227600000000     0          
O2       O      0.890950000000     0.390950000000     0.183000000000     0          
C3       C      0.891450000000     0.391450000000     0.236550000000     0          
H1       H      0.902450000000     0.402450000000     0.227600000000     0          
O2       O      0.859050000000     0.359050000000     0.317000000000     0          
C3       C      0.858550000000     0.358550000000     0.263450000000     0          
H1       H      0.847550000000     0.347550000000     0.272400000000     0          
O2       O      0.890950000000     0.109050000000     0.317000000000     0          
C3       C      0.891450000000     0.108550000000     0.263450000000     0          
H1       H      0.902450000000     0.097550000000     0.272400000000     0          
O2       O      0.640950000000     0.140950000000     0.317000000000     0          
C3       C      0.641450000000     0.141450000000     0.263450000000     0          
H1       H      0.652450000000     0.152450000000     0.272400000000     0          
O2       O      0.609050000000     0.390950000000     0.317000000000     0          
C3       C      0.608550000000     0.391450000000     0.263450000000     0          
H1       H      0.597550000000     0.402450000000     0.272400000000     0          
O2       O      0.640950000000     0.183000000000     0.140950000000     0          
C3       C      0.641450000000     0.236550000000     0.141450000000     0          
H1       H      0.652450000000     0.227600000000     0.152450000000     0          
O2       O      0.859050000000     0.317000000000     0.140950000000     0          
C3       C      0.858550000000     0.263450000000     0.141450000000     0          
H1       H      0.847550000000     0.272400000000     0.152450000000     0          
O2       O      0.859050000000     0.183000000000     0.359050000000     0          
C3       C      0.858550000000     0.236550000000     0.358550000000     0          
H1       H      0.847550000000     0.227600000000     0.347550000000     0          
O2       O      0.640950000000     0.317000000000     0.359050000000     0          
C3       C      0.641450000000     0.263450000000     0.358550000000     0          
H1       H      0.652450000000     0.272400000000     0.347550000000     0          
O2       O      0.890950000000     0.183000000000     0.109050000000     0          
C3       C      0.891450000000     0.236550000000     0.108550000000     0          
H1       H      0.902450000000     0.227600000000     0.097550000000     0          
O2       O      0.890950000000     0.317000000000     0.390950000000     0          
C3       C      0.891450000000     0.263450000000     0.391450000000     0          
H1       H      0.902450000000     0.272400000000     0.402450000000     0          
O2       O      0.609050000000     0.183000000000     0.390950000000     0          
C3       C      0.608550000000     0.236550000000     0.391450000000     0          
H1       H      0.597550000000     0.227600000000     0.402450000000     0          
O2       O      0.609050000000     0.317000000000     0.109050000000     0          
C3       C      0.608550000000     0.263450000000     0.108550000000     0          
H1       H      0.597550000000     0.272400000000     0.097550000000     0          
O2       O      0.817000000000     0.140950000000     0.359050000000     0          
C1       C      0.805650000000     0.125000000000     0.375000000000     0          
C2       C      0.776900000000     0.125000000000     0.375000000000     0          
C3       C      0.763450000000     0.141450000000     0.358550000000     0          
H1       H      0.772400000000     0.152450000000     0.347550000000     0          
O2       O      0.683000000000     0.359050000000     0.359050000000     0          
C1       C      0.694350000000     0.375000000000     0.375000000000     0          
C2       C      0.723100000000     0.375000000000     0.375000000000     0          
C3       C      0.736550000000     0.358550000000     0.358550000000     0          
H1       H      0.727600000000     0.347550000000     0.347550000000     0          
O2       O      0.817000000000     0.359050000000     0.140950000000     0          
C1       C      0.805650000000     0.375000000000     0.125000000000     0          
C2       C      0.776900000000     0.375000000000     0.125000000000     0          
C3       C      0.763450000000     0.358550000000     0.141450000000     0          
H1       H      0.772400000000     0.347550000000     0.152450000000     0          
O2       O      0.683000000000     0.140950000000     0.140950000000     0          
C1       C      0.694350000000     0.125000000000     0.125000000000     0          
C2       C      0.723100000000     0.125000000000     0.125000000000     0          
C3       C      0.736550000000     0.141450000000     0.141450000000     0          
H1       H      0.727600000000     0.152450000000     0.152450000000     0          
O2       O      0.817000000000     0.109050000000     0.109050000000     0          
C1       C      0.805650000000     0.125000000000     0.125000000000     0          
C2       C      0.776900000000     0.125000000000     0.125000000000     0          
C3       C      0.763450000000     0.108550000000     0.108550000000     0          
H1       H      0.772400000000     0.097550000000     0.097550000000     0          
O2       O      0.683000000000     0.390950000000     0.109050000000     0          
C1       C      0.694350000000     0.375000000000     0.125000000000     0          
C2       C      0.723100000000     0.375000000000     0.125000000000     0          
C3       C      0.736550000000     0.391450000000     0.108550000000     0          
H1       H      0.727600000000     0.402450000000     0.097550000000     0          
O2       O      0.817000000000     0.390950000000     0.390950000000     0          
C1       C      0.805650000000     0.375000000000     0.375000000000     0          
C2       C      0.776900000000     0.375000000000     0.375000000000     0          
C3       C      0.763450000000     0.391450000000     0.391450000000     0          
H1       H      0.772400000000     0.402450000000     0.402450000000     0          
O2       O      0.683000000000     0.109050000000     0.390950000000     0          
C1       C      0.694350000000     0.125000000000     0.375000000000     0          
C2       C      0.723100000000     0.125000000000     0.375000000000     0          
C3       C      0.736550000000     0.108550000000     0.391450000000     0          
H1       H      0.727600000000     0.097550000000     0.402450000000     0          
O2       O      0.683000000000     0.359050000000     0.140950000000     0          
C3       C      0.736550000000     0.358550000000     0.141450000000     0          
H1       H      0.727600000000     0.347550000000     0.152450000000     0          
O2       O      0.817000000000     0.140950000000     0.140950000000     0          
C3       C      0.763450000000     0.141450000000     0.141450000000     0          
H1       H      0.772400000000     0.152450000000     0.152450000000     0          
O2       O      0.683000000000     0.140950000000     0.359050000000     0          
C3       C      0.736550000000     0.141450000000     0.358550000000     0          
H1       H      0.727600000000     0.152450000000     0.347550000000     0          
O2       O      0.817000000000     0.359050000000     0.359050000000     0          
C3       C      0.763450000000     0.358550000000     0.358550000000     0          
H1       H      0.772400000000     0.347550000000     0.347550000000     0          
O2       O      0.683000000000     0.390950000000     0.390950000000     0          
C3       C      0.736550000000     0.391450000000     0.391450000000     0          
H1       H      0.727600000000     0.402450000000     0.402450000000     0          
O2       O      0.817000000000     0.109050000000     0.390950000000     0          
C3       C      0.763450000000     0.108550000000     0.391450000000     0          
H1       H      0.772400000000     0.097550000000     0.402450000000     0          
O2       O      0.683000000000     0.109050000000     0.109050000000     0          
C3       C      0.736550000000     0.108550000000     0.108550000000     0          
H1       H      0.727600000000     0.097550000000     0.097550000000     0          
O2       O      0.817000000000     0.390950000000     0.109050000000     0          
C3       C      0.763450000000     0.391450000000     0.108550000000     0          
H1       H      0.772400000000     0.402450000000     0.097550000000     0          
Zn1      Zn     0.646700000000     0.103300000000     0.603300000000     0          
O1       O      0.625000000000     0.125000000000     0.625000000000     0          
O2       O      0.640950000000     0.109050000000     0.567000000000     0          
C1       C      0.625000000000     0.125000000000     0.555650000000     0          
C2       C      0.625000000000     0.125000000000     0.526900000000     0          
C3       C      0.641450000000     0.108550000000     0.513450000000     0          
H1       H      0.652450000000     0.097550000000     0.522400000000     0          
Zn1      Zn     0.896700000000     0.146700000000     0.603300000000     0          
O1       O      0.875000000000     0.125000000000     0.625000000000     0          
O2       O      0.890950000000     0.140950000000     0.567000000000     0          
C1       C      0.875000000000     0.125000000000     0.555650000000     0          
C2       C      0.875000000000     0.125000000000     0.526900000000     0          
C3       C      0.891450000000     0.141450000000     0.513450000000     0          
H1       H      0.902450000000     0.152450000000     0.522400000000     0          
Zn1      Zn     0.853300000000     0.396700000000     0.603300000000     0          
O1       O      0.875000000000     0.375000000000     0.625000000000     0          
O2       O      0.859050000000     0.390950000000     0.567000000000     0          
C1       C      0.875000000000     0.375000000000     0.555650000000     0          
C2       C      0.875000000000     0.375000000000     0.526900000000     0          
C3       C      0.858550000000     0.391450000000     0.513450000000     0          
H1       H      0.847550000000     0.402450000000     0.522400000000     0          
Zn1      Zn     0.603300000000     0.353300000000     0.603300000000     0          
O1       O      0.625000000000     0.375000000000     0.625000000000     0          
O2       O      0.609050000000     0.359050000000     0.567000000000     0          
C1       C      0.625000000000     0.375000000000     0.555650000000     0          
C2       C      0.625000000000     0.375000000000     0.526900000000     0          
C3       C      0.608550000000     0.358550000000     0.513450000000     0          
H1       H      0.597550000000     0.347550000000     0.522400000000     0          
Zn1      Zn     0.646700000000     0.396700000000     0.896700000000     0          
O1       O      0.625000000000     0.375000000000     0.875000000000     0          
O2       O      0.640950000000     0.390950000000     0.933000000000     0          
C1       C      0.625000000000     0.375000000000     0.944350000000     0          
C2       C      0.625000000000     0.375000000000     0.973100000000     0          
C3       C      0.641450000000     0.391450000000     0.986550000000     0          
H1       H      0.652450000000     0.402450000000     0.977600000000     0          
Zn1      Zn     0.603300000000     0.146700000000     0.896700000000     0          
O1       O      0.625000000000     0.125000000000     0.875000000000     0          
O2       O      0.609050000000     0.140950000000     0.933000000000     0          
C1       C      0.625000000000     0.125000000000     0.944350000000     0          
C2       C      0.625000000000     0.125000000000     0.973100000000     0          
C3       C      0.608550000000     0.141450000000     0.986550000000     0          
H1       H      0.597550000000     0.152450000000     0.977600000000     0          
Zn1      Zn     0.853300000000     0.103300000000     0.896700000000     0          
O1       O      0.875000000000     0.125000000000     0.875000000000     0          
O2       O      0.859050000000     0.109050000000     0.933000000000     0          
C1       C      0.875000000000     0.125000000000     0.944350000000     0          
C2       C      0.875000000000     0.125000000000     0.973100000000     0          
C3       C      0.858550000000     0.108550000000     0.986550000000     0          
H1       H      0.847550000000     0.097550000000     0.977600000000     0          
Zn1      Zn     0.896700000000     0.353300000000     0.896700000000     0          
O1       O      0.875000000000     0.375000000000     0.875000000000     0          
O2       O      0.890950000000     0.359050000000     0.933000000000     0          
C1       C      0.875000000000     0.375000000000     0.944350000000     0          
C2       C      0.875000000000     0.375000000000     0.973100000000     0          
C3       C      0.891450000000     0.358550000000     0.986550000000     0          
H1       H      0.902450000000     0.347550000000     0.977600000000     0          
Zn1      Zn     0.603300000000     0.146700000000     0.603300000000     0          
O2       O      0.567000000000     0.140950000000     0.609050000000     0          
C1       C      0.555650000000     0.125000000000     0.625000000000     0          
C2       C      0.526900000000     0.125000000000     0.625000000000     0          
C3       C      0.513450000000     0.141450000000     0.608550000000     0          
H1       H      0.522400000000     0.152450000000     0.597550000000     0          
Zn1      Zn     0.853300000000     0.103300000000     0.603300000000     0          
O2       O      0.859050000000     0.067000000000     0.609050000000     0          
C1       C      0.875000000000     0.055650000000     0.625000000000     0          
C2       C      0.875000000000     0.026900000000     0.625000000000     0          
C3       C      0.858550000000     0.013450000000     0.608550000000     0          
H1       H      0.847550000000     0.022400000000     0.597550000000     0          
Zn1      Zn     0.896700000000     0.353300000000     0.603300000000     0          
O2       O      0.933000000000     0.359050000000     0.609050000000     0          
C1       C      0.944350000000     0.375000000000     0.625000000000     0          
C2       C      0.973100000000     0.375000000000     0.625000000000     0          
C3       C      0.986550000000     0.358550000000     0.608550000000     0          
H1       H      0.977600000000     0.347550000000     0.597550000000     0          
Zn1      Zn     0.646700000000     0.396700000000     0.603300000000     0          
O2       O      0.640950000000     0.433000000000     0.609050000000     0          
C1       C      0.625000000000     0.444350000000     0.625000000000     0          
C2       C      0.625000000000     0.473100000000     0.625000000000     0          
C3       C      0.641450000000     0.486550000000     0.608550000000     0          
H1       H      0.652450000000     0.477600000000     0.597550000000     0          
Zn1      Zn     0.603300000000     0.353300000000     0.896700000000     0          
O2       O      0.567000000000     0.359050000000     0.890950000000     0          
C1       C      0.555650000000     0.375000000000     0.875000000000     0          
C2       C      0.526900000000     0.375000000000     0.875000000000     0          
C3       C      0.513450000000     0.358550000000     0.891450000000     0          
H1       H      0.522400000000     0.347550000000     0.902450000000     0          
Zn1      Zn     0.646700000000     0.103300000000     0.896700000000     0          
O2       O      0.640950000000     0.067000000000     0.890950000000     0          
C1       C      0.625000000000     0.055650000000     0.875000000000     0          
C2       C      0.625000000000     0.026900000000     0.875000000000     0          
C3       C      0.641450000000     0.013450000000     0.891450000000     0          
H1       H      0.652450000000     0.022400000000     0.902450000000     0          
Zn1      Zn     0.896700000000     0.146700000000     0.896700000000     0          
O2       O      0.933000000000     0.140950000000     0.890950000000     0          
C1       C      0.944350000000     0.125000000000     0.875000000000     0          
C2       C      0.973100000000     0.125000000000     0.875000000000     0          
C3       C      0.986550000000     0.141450000000     0.891450000000     0          
H1       H      0.977600000000     0.152450000000     0.902450000000     0          
Zn1      Zn     0.853300000000     0.396700000000     0.896700000000     0          
O2       O      0.859050000000     0.433000000000     0.890950000000     0          
C1       C      0.875000000000     0.444350000000     0.875000000000     0          
C2       C      0.875000000000     0.473100000000     0.875000000000     0          
C3       C      0.858550000000     0.486550000000     0.891450000000     0          
H1       H      0.847550000000     0.477600000000     0.902450000000     0          
Zn1      Zn     0.603300000000     0.103300000000     0.646700000000     0          
O2       O      0.609050000000     0.067000000000     0.640950000000     0          
C1       C      0.625000000000     0.055650000000     0.625000000000     0          
C2       C      0.625000000000     0.026900000000     0.625000000000     0          
C3       C      0.608550000000     0.013450000000     0.641450000000     0          
H1       H      0.597550000000     0.022400000000     0.652450000000     0          
Zn1      Zn     0.603300000000     0.396700000000     0.853300000000     0          
O2       O      0.609050000000     0.433000000000     0.859050000000     0          
C1       C      0.625000000000     0.444350000000     0.875000000000     0          
C2       C      0.625000000000     0.473100000000     0.875000000000     0          
C3       C      0.608550000000     0.486550000000     0.858550000000     0          
H1       H      0.597550000000     0.477600000000     0.847550000000     0          
Zn1      Zn     0.603300000000     0.103300000000     0.853300000000     0          
O2       O      0.567000000000     0.109050000000     0.859050000000     0          
C1       C      0.555650000000     0.125000000000     0.875000000000     0          
C2       C      0.526900000000     0.125000000000     0.875000000000     0          
C3       C      0.513450000000     0.108550000000     0.858550000000     0          
H1       H      0.522400000000     0.097550000000     0.847550000000     0          
Zn1      Zn     0.896700000000     0.103300000000     0.853300000000     0          
O2       O      0.890950000000     0.067000000000     0.859050000000     0          
C1       C      0.875000000000     0.055650000000     0.875000000000     0          
C2       C      0.875000000000     0.026900000000     0.875000000000     0          
C3       C      0.891450000000     0.013450000000     0.858550000000     0          
H1       H      0.902450000000     0.022400000000     0.847550000000     0          
Zn1      Zn     0.896700000000     0.396700000000     0.853300000000     0          
O2       O      0.933000000000     0.390950000000     0.859050000000     0          
C1       C      0.944350000000     0.375000000000     0.875000000000     0          
C2       C      0.973100000000     0.375000000000     0.875000000000     0          
C3       C      0.986550000000     0.391450000000     0.858550000000     0          
H1       H      0.977600000000     0.402450000000     0.847550000000     0          
Zn1      Zn     0.896700000000     0.396700000000     0.646700000000     0          
O2       O      0.890950000000     0.433000000000     0.640950000000     0          
C1       C      0.875000000000     0.444350000000     0.625000000000     0          
C2       C      0.875000000000     0.473100000000     0.625000000000     0          
C3       C      0.891450000000     0.486550000000     0.641450000000     0          
H1       H      0.902450000000     0.477600000000     0.652450000000     0          
Zn1      Zn     0.603300000000     0.396700000000     0.646700000000     0          
O2       O      0.567000000000     0.390950000000     0.640950000000     0          
C1       C      0.555650000000     0.375000000000     0.625000000000     0          
C2       C      0.526900000000     0.375000000000     0.625000000000     0          
C3       C      0.513450000000     0.391450000000     0.641450000000     0          
H1       H      0.522400000000     0.402450000000     0.652450000000     0          
Zn1      Zn     0.896700000000     0.103300000000     0.646700000000     0          
O2       O      0.933000000000     0.109050000000     0.640950000000     0          
C1       C      0.944350000000     0.125000000000     0.625000000000     0          
C2       C      0.973100000000     0.125000000000     0.625000000000     0          
C3       C      0.986550000000     0.108550000000     0.641450000000     0          
H1       H      0.977600000000     0.097550000000     0.652450000000     0          
O2       O      0.859050000000     0.390950000000     0.933000000000     0          
C3       C      0.858550000000     0.391450000000     0.986550000000     0          
H1       H      0.847550000000     0.402450000000     0.977600000000     0          
O2       O      0.609050000000     0.359050000000     0.933000000000     0          
C3       C      0.608550000000     0.358550000000     0.986550000000     0          
H1       H      0.597550000000     0.347550000000     0.977600000000     0          
O2       O      0.640950000000     0.109050000000     0.933000000000     0          
C3       C      0.641450000000     0.108550000000     0.986550000000     0          
H1       H      0.652450000000     0.097550000000     0.977600000000     0          
O2       O      0.890950000000     0.140950000000     0.933000000000     0          
C3       C      0.891450000000     0.141450000000     0.986550000000     0          
H1       H      0.902450000000     0.152450000000     0.977600000000     0          
O2       O      0.859050000000     0.109050000000     0.567000000000     0          
C3       C      0.858550000000     0.108550000000     0.513450000000     0          
H1       H      0.847550000000     0.097550000000     0.522400000000     0          
O2       O      0.890950000000     0.359050000000     0.567000000000     0          
C3       C      0.891450000000     0.358550000000     0.513450000000     0          
H1       H      0.902450000000     0.347550000000     0.522400000000     0          
O2       O      0.640950000000     0.390950000000     0.567000000000     0          
C3       C      0.641450000000     0.391450000000     0.513450000000     0          
H1       H      0.652450000000     0.402450000000     0.522400000000     0          
O2       O      0.609050000000     0.140950000000     0.567000000000     0          
C3       C      0.608550000000     0.141450000000     0.513450000000     0          
H1       H      0.597550000000     0.152450000000     0.522400000000     0          
O2       O      0.933000000000     0.359050000000     0.890950000000     0          
C3       C      0.986550000000     0.358550000000     0.891450000000     0          
H1       H      0.977600000000     0.347550000000     0.902450000000     0          
O2       O      0.640950000000     0.433000000000     0.890950000000     0          
C3       C      0.641450000000     0.486550000000     0.891450000000     0          
H1       H      0.652450000000     0.477600000000     0.902450000000     0          
O2       O      0.567000000000     0.140950000000     0.890950000000     0          
C3       C      0.513450000000     0.141450000000     0.891450000000     0          
H1       H      0.522400000000     0.152450000000     0.902450000000     0          
O2       O      0.859050000000     0.067000000000     0.890950000000     0          
C3       C      0.858550000000     0.013450000000     0.891450000000     0          
H1       H      0.847550000000     0.022400000000     0.902450000000     0          
O2       O      0.933000000000     0.140950000000     0.609050000000     0          
C3       C      0.986550000000     0.141450000000     0.608550000000     0          
H1       H      0.977600000000     0.152450000000     0.597550000000     0          
O2       O      0.859050000000     0.433000000000     0.609050000000     0          
C3       C      0.858550000000     0.486550000000     0.608550000000     0          
H1       H      0.847550000000     0.477600000000     0.597550000000     0          
O2       O      0.567000000000     0.359050000000     0.609050000000     0          
C3       C      0.513450000000     0.358550000000     0.608550000000     0          
H1       H      0.522400000000     0.347550000000     0.597550000000     0          
O2       O      0.640950000000     0.067000000000     0.609050000000     0          
C3       C      0.641450000000     0.013450000000     0.608550000000     0          
H1       H      0.652450000000     0.022400000000     0.597550000000     0          
O2       O      0.890950000000     0.433000000000     0.859050000000     0          
C3       C      0.891450000000     0.486550000000     0.858550000000     0          
H1       H      0.902450000000     0.477600000000     0.847550000000     0          
O2       O      0.890950000000     0.067000000000     0.640950000000     0          
C3       C      0.891450000000     0.013450000000     0.641450000000     0          
H1       H      0.902450000000     0.022400000000     0.652450000000     0          
O2       O      0.933000000000     0.390950000000     0.640950000000     0          
C3       C      0.986550000000     0.391450000000     0.641450000000     0          
H1       H      0.977600000000     0.402450000000     0.652450000000     0          
O2       O      0.609050000000     0.433000000000     0.640950000000     0          
C3       C      0.608550000000     0.486550000000     0.641450000000     0          
H1       H      0.597550000000     0.477600000000     0.652450000000     0          
O2       O      0.567000000000     0.109050000000     0.640950000000     0          
C3       C      0.513450000000     0.108550000000     0.641450000000     0          
H1       H      0.522400000000     0.097550000000     0.652450000000     0          
O2       O      0.609050000000     0.067000000000     0.859050000000     0          
C3       C      0.608550000000     0.013450000000     0.858550000000     0          
H1       H      0.597550000000     0.022400000000     0.847550000000     0          
O2       O      0.933000000000     0.109050000000     0.859050000000     0          
C3       C      0.986550000000     0.108550000000     0.858550000000     0          
H1       H      0.977600000000     0.097550000000     0.847550000000     0          
O2       O      0.567000000000     0.390950000000     0.859050000000     0          
C3       C      0.513450000000     0.391450000000     0.858550000000     0          
H1       H      0.522400000000     0.402450000000     0.847550000000     0          
Zn1      Zn     0.646700000000     0.353300000000     0.853300000000     0          
O2       O      0.640950000000     0.359050000000     0.817000000000     0          
C1       C      0.625000000000     0.375000000000     0.805650000000     0          
C2       C      0.625000000000     0.375000000000     0.776900000000     0          
C3       C      0.641450000000     0.358550000000     0.763450000000     0          
H1       H      0.652450000000     0.347550000000     0.772400000000     0          
O2       O      0.890950000000     0.390950000000     0.817000000000     0          
C1       C      0.875000000000     0.375000000000     0.805650000000     0          
C2       C      0.875000000000     0.375000000000     0.776900000000     0          
C3       C      0.891450000000     0.391450000000     0.763450000000     0          
H1       H      0.902450000000     0.402450000000     0.772400000000     0          
Zn1      Zn     0.853300000000     0.146700000000     0.853300000000     0          
O2       O      0.859050000000     0.140950000000     0.817000000000     0          
C1       C      0.875000000000     0.125000000000     0.805650000000     0          
C2       C      0.875000000000     0.125000000000     0.776900000000     0          
C3       C      0.858550000000     0.141450000000     0.763450000000     0          
H1       H      0.847550000000     0.152450000000     0.772400000000     0          
O2       O      0.609050000000     0.109050000000     0.817000000000     0          
C1       C      0.625000000000     0.125000000000     0.805650000000     0          
C2       C      0.625000000000     0.125000000000     0.776900000000     0          
C3       C      0.608550000000     0.108550000000     0.763450000000     0          
H1       H      0.597550000000     0.097550000000     0.772400000000     0          
Zn1      Zn     0.646700000000     0.146700000000     0.646700000000     0          
O2       O      0.640950000000     0.140950000000     0.683000000000     0          
C1       C      0.625000000000     0.125000000000     0.694350000000     0          
C2       C      0.625000000000     0.125000000000     0.723100000000     0          
C3       C      0.641450000000     0.141450000000     0.736550000000     0          
H1       H      0.652450000000     0.152450000000     0.727600000000     0          
O2       O      0.609050000000     0.390950000000     0.683000000000     0          
C1       C      0.625000000000     0.375000000000     0.694350000000     0          
C2       C      0.625000000000     0.375000000000     0.723100000000     0          
C3       C      0.608550000000     0.391450000000     0.736550000000     0          
H1       H      0.597550000000     0.402450000000     0.727600000000     0          
Zn1      Zn     0.853300000000     0.353300000000     0.646700000000     0          
O2       O      0.859050000000     0.359050000000     0.683000000000     0          
C1       C      0.875000000000     0.375000000000     0.694350000000     0          
C2       C      0.875000000000     0.375000000000     0.723100000000     0          
C3       C      0.858550000000     0.358550000000     0.736550000000     0          
H1       H      0.847550000000     0.347550000000     0.727600000000     0          
O2       O      0.890950000000     0.109050000000     0.683000000000     0          
C1       C      0.875000000000     0.125000000000     0.694350000000     0          
C2       C      0.875000000000     0.125000000000     0.723100000000     0          
C3       C      0.891450000000     0.108550000000     0.736550000000     0          
H1       H      0.902450000000     0.097550000000     0.727600000000     0          
Zn1      Zn     0.853300000000     0.353300000000     0.853300000000     0          
O2       O      0.859050000000     0.317000000000     0.859050000000     0          
C1       C      0.875000000000     0.305650000000     0.875000000000     0          
C2       C      0.875000000000     0.276900000000     0.875000000000     0          
C3       C      0.858550000000     0.263450000000     0.858550000000     0          
H1       H      0.847550000000     0.272400000000     0.847550000000     0          
Zn1      Zn     0.646700000000     0.146700000000     0.853300000000     0          
O2       O      0.640950000000     0.183000000000     0.859050000000     0          
C1       C      0.625000000000     0.194350000000     0.875000000000     0          
C2       C      0.625000000000     0.223100000000     0.875000000000     0          
C3       C      0.641450000000     0.236550000000     0.858550000000     0          
H1       H      0.652450000000     0.227600000000     0.847550000000     0          
Zn1      Zn     0.646700000000     0.353300000000     0.646700000000     0          
O2       O      0.640950000000     0.317000000000     0.640950000000     0          
C1       C      0.625000000000     0.305650000000     0.625000000000     0          
C2       C      0.625000000000     0.276900000000     0.625000000000     0          
C3       C      0.641450000000     0.263450000000     0.641450000000     0          
H1       H      0.652450000000     0.272400000000     0.652450000000     0          
Zn1      Zn     0.853300000000     0.146700000000     0.646700000000     0          
O2       O      0.859050000000     0.183000000000     0.640950000000     0          
C1       C      0.875000000000     0.194350000000     0.625000000000     0          
C2       C      0.875000000000     0.223100000000     0.625000000000     0          
C3       C      0.858550000000     0.236550000000     0.641450000000     0          
H1       H      0.847550000000     0.227600000000     0.652450000000     0          
O2       O      0.609050000000     0.317000000000     0.890950000000     0          
C1       C      0.625000000000     0.305650000000     0.875000000000     0          
C2       C      0.625000000000     0.276900000000     0.875000000000     0          
C3       C      0.608550000000     0.263450000000     0.891450000000     0          
H1       H      0.597550000000     0.272400000000     0.902450000000     0          
O2       O      0.609050000000     0.183000000000     0.609050000000     0          
C1       C      0.625000000000     0.194350000000     0.625000000000     0          
C2       C      0.625000000000     0.223100000000     0.625000000000     0          
C3       C      0.608550000000     0.236550000000     0.608550000000     0          
H1       H      0.597550000000     0.227600000000     0.597550000000     0          
O2       O      0.890950000000     0.317000000000     0.609050000000     0          
C1       C      0.875000000000     0.305650000000     0.625000000000     0          
C2       C      0.875000000000     0.276900000000     0.625000000000     0          
C3       C      0.891450000000     0.263450000000     0.608550000000     0          
H1       H      0.902450000000     0.272400000000     0.597550000000     0          
O2       O      0.890950000000     0.183000000000     0.890950000000     0          
C1       C      0.875000000000     0.194350000000     0.875000000000     0          
C2       C      0.875000000000     0.223100000000     0.875000000000     0          
C3       C      0.891450000000     0.236550000000     0.891450000000     0          
H1       H      0.902450000000     0.227600000000     0.902450000000     0          
O2       O      0.859050000000     0.140950000000     0.683000000000     0          
C3       C      0.858550000000     0.141450000000     0.736550000000     0          
H1       H      0.847550000000     0.152450000000     0.727600000000     0          
O2       O      0.609050000000     0.109050000000     0.683000000000     0          
C3       C      0.608550000000     0.108550000000     0.736550000000     0          
H1       H      0.597550000000     0.097550000000     0.727600000000     0          
O2       O      0.640950000000     0.359050000000     0.683000000000     0          
C3       C      0.641450000000     0.358550000000     0.736550000000     0          
H1       H      0.652450000000     0.347550000000     0.727600000000     0          
O2       O      0.890950000000     0.390950000000     0.683000000000     0          
C3       C      0.891450000000     0.391450000000     0.736550000000     0          
H1       H      0.902450000000     0.402450000000     0.727600000000     0          
O2       O      0.859050000000     0.359050000000     0.817000000000     0          
C3       C      0.858550000000     0.358550000000     0.763450000000     0          
H1       H      0.847550000000     0.347550000000     0.772400000000     0          
O2       O      0.890950000000     0.109050000000     0.817000000000     0          
C3       C      0.891450000000     0.108550000000     0.763450000000     0          
H1       H      0.902450000000     0.097550000000     0.772400000000     0          
O2       O      0.640950000000     0.140950000000     0.817000000000     0          
C3       C      0.641450000000     0.141450000000     0.763450000000     0          
H1       H      0.652450000000     0.152450000000     0.772400000000     0          
O2       O      0.609050000000     0.390950000000     0.817000000000     0          
C3       C      0.608550000000     0.391450000000     0.763450000000     0          
H1       H      0.597550000000     0.402450000000     0.772400000000     0          
O2       O      0.640950000000     0.183000000000     0.640950000000     0          
C3       C      0.641450000000     0.236550000000     0.641450000000     0          
H1       H      0.652450000000     0.227600000000     0.652450000000     0          
O2       O      0.859050000000     0.317000000000     0.640950000000     0          
C3       C      0.858550000000     0.263450000000     0.641450000000     0          
H1       H      0.847550000000     0.272400000000     0.652450000000     0          
O2       O      0.859050000000     0.183000000000     0.859050000000     0          
C3       C      0.858550000000     0.236550000000     0.858550000000     0          
H1       H      0.847550000000     0.227600000000     0.847550000000     0          
O2       O      0.640950000000     0.317000000000     0.859050000000     0          
C3       C      0.641450000000     0.263450000000     0.858550000000     0          
H1       H      0.652450000000     0.272400000000     0.847550000000     0          
O2       O      0.890950000000     0.183000000000     0.609050000000     0          
C3       C      0.891450000000     0.236550000000     0.608550000000     0          
H1       H      0.902450000000     0.227600000000     0.597550000000     0          
O2       O      0.890950000000     0.317000000000     0.890950000000     0          
C3       C      0.891450000000     0.263450000000     0.891450000000     0          
H1       H      0.902450000000     0.272400000000     0.902450000000     0          
O2       O      0.609050000000     0.183000000000     0.890950000000     0          
C3       C      0.608550000000     0.236550000000     0.891450000000     0          
H1       H      0.597550000000     0.227600000000     0.902450000000     0          
O2       O      0.609050000000     0.317000000000     0.609050000000     0          
C3       C      0.608550000000     0.263450000000     0.608550000000     0          
H1       H      0.597550000000     0.272400000000     0.597550000000     0          
O2       O      0.817000000000     0.140950000000     0.859050000000     0          
C1       C      0.805650000000     0.125000000000     0.875000000000     0          
C2       C      0.776900000000     0.125000000000     0.875000000000     0          
C3       C      0.763450000000     0.141450000000     0.858550000000     0          
H1       H      0.772400000000     0.152450000000     0.847550000000     0          
O2       O      0.683000000000     0.359050000000     0.859050000000     0          
C1       C      0.694350000000     0.375000000000     0.875000000000     0          
C2       C      0.723100000000     0.375000000000     0.875000000000     0          
C3       C      0.736550000000     0.358550000000     0.858550000000     0          
H1       H      0.727600000000     0.347550000000     0.847550000000     0          
O2       O      0.817000000000     0.359050000000     0.640950000000     0          
C1       C      0.805650000000     0.375000000000     0.625000000000     0          
C2       C      0.776900000000     0.375000000000     0.625000000000     0          
C3       C      0.763450000000     0.358550000000     0.641450000000     0          
H1       H      0.772400000000     0.347550000000     0.652450000000     0          
O2       O      0.683000000000     0.140950000000     0.640950000000     0          
C1       C      0.694350000000     0.125000000000     0.625000000000     0          
C2       C      0.723100000000     0.125000000000     0.625000000000     0          
C3       C      0.736550000000     0.141450000000     0.641450000000     0          
H1       H      0.727600000000     0.152450000000     0.652450000000     0          
O2       O      0.817000000000     0.109050000000     0.609050000000     0          
C1       C      0.805650000000     0.125000000000     0.625000000000     0          
C2       C      0.776900000000     0.125000000000     0.625000000000     0          
C3       C      0.763450000000     0.108550000000     0.608550000000     0          
H1       H      0.772400000000     0.097550000000     0.597550000000     0          
O2       O      0.683000000000     0.390950000000     0.609050000000     0          
C1       C      0.694350000000     0.375000000000     0.625000000000     0          
C2       C      0.723100000000     0.375000000000     0.625000000000     0          
C3       C      0.736550000000     0.391450000000     0.608550000000     0          
H1       H      0.727600000000     0.402450000000     0.597550000000     0          
O2       O      0.817000000000     0.390950000000     0.890950000000     0          
C1       C      0.805650000000     0.375000000000     0.875000000000     0          
C2       C      0.776900000000     0.375000000000     0.875000000000     0          
C3       C      0.763450000000     0.391450000000     0.891450000000     0          
H1       H      0.772400000000     0.402450000000     0.902450000000     0          
O2       O      0.683000000000     0.109050000000     0.890950000000     0          
C1       C      0.694350000000     0.125000000000     0.875000000000     0          
C2       C      0.723100000000     0.125000000000     0.875000000000     0          
C3       C      0.736550000000     0.108550000000     0.891450000000     0          
H1       H      0.727600000000     0.097550000000     0.902450000000     0          
O2       O      0.683000000000     0.359050000000     0.640950000000     0          
C3       C      0.736550000000     0.358550000000     0.641450000000     0          
H1       H      0.727600000000     0.347550000000     0.652450000000     0          
O2       O      0.817000000000     0.140950000000     0.640950000000     0          
C3       C      0.763450000000     0.141450000000     0.641450000000     0          
H1       H      0.772400000000     0.152450000000     0.652450000000     0          
O2       O      0.683000000000     0.140950000000     0.859050000000     0          
C3       C      0.736550000000     0.141450000000     0.858550000000     0          
H1       H      0.727600000000     0.152450000000     0.847550000000     0          
O2       O      0.817000000000     0.359050000000     0.859050000000     0          
C3       C      0.763450000000     0.358550000000     0.858550000000     0          
H1       H      0.772400000000     0.347550000000     0.847550000000     0          
O2       O      0.683000000000     0.390950000000     0.890950000000     0          
C3       C      0.736550000000     0.391450000000     0.891450000000     0          
H1       H      0.727600000000     0.402450000000     0.902450000000     0          
O2       O      0.817000000000     0.109050000000     0.890950000000     0          
C3       C      0.763450000000     0.108550000000     0.891450000000     0          
H1       H      0.772400000000     0.097550000000     0.902450000000     0          
O2       O      0.683000000000     0.109050000000     0.609050000000     0          
C3       C      0.736550000000     0.108550000000     0.608550000000     0          
H1       H      0.727600000000     0.097550000000     0.597550000000     0          
O2       O      0.817000000000     0.390950000000     0.609050000000     0          
C3       C      0.763450000000     0.391450000000     0.608550000000     0          
H1       H      0.772400000000     0.402450000000     0.597550000000     0          
Zn1      Zn     0.646700000000     0.603300000000     0.103300000000     0          
O1       O      0.625000000000     0.625000000000     0.125000000000     0          
O2       O      0.640950000000     0.609050000000     0.067000000000     0          
C1       C      0.625000000000     0.625000000000     0.055650000000     0          
C2       C      0.625000000000     0.625000000000     0.026900000000     0          
C3       C      0.641450000000     0.608550000000     0.013450000000     0          
H1       H      0.652450000000     0.597550000000     0.022400000000     0          
Zn1      Zn     0.896700000000     0.646700000000     0.103300000000     0          
O1       O      0.875000000000     0.625000000000     0.125000000000     0          
O2       O      0.890950000000     0.640950000000     0.067000000000     0          
C1       C      0.875000000000     0.625000000000     0.055650000000     0          
C2       C      0.875000000000     0.625000000000     0.026900000000     0          
C3       C      0.891450000000     0.641450000000     0.013450000000     0          
H1       H      0.902450000000     0.652450000000     0.022400000000     0          
Zn1      Zn     0.853300000000     0.896700000000     0.103300000000     0          
O1       O      0.875000000000     0.875000000000     0.125000000000     0          
O2       O      0.859050000000     0.890950000000     0.067000000000     0          
C1       C      0.875000000000     0.875000000000     0.055650000000     0          
C2       C      0.875000000000     0.875000000000     0.026900000000     0          
C3       C      0.858550000000     0.891450000000     0.013450000000     0          
H1       H      0.847550000000     0.902450000000     0.022400000000     0          
Zn1      Zn     0.603300000000     0.853300000000     0.103300000000     0          
O1       O      0.625000000000     0.875000000000     0.125000000000     0          
O2       O      0.609050000000     0.859050000000     0.067000000000     0          
C1       C      0.625000000000     0.875000000000     0.055650000000     0          
C2       C      0.625000000000     0.875000000000     0.026900000000     0          
C3       C      0.608550000000     0.858550000000     0.013450000000     0          
H1       H      0.597550000000     0.847550000000     0.022400000000     0          
Zn1      Zn     0.646700000000     0.896700000000     0.396700000000     0          
O1       O      0.625000000000     0.875000000000     0.375000000000     0          
O2       O      0.640950000000     0.890950000000     0.433000000000     0          
C1       C      0.625000000000     0.875000000000     0.444350000000     0          
C2       C      0.625000000000     0.875000000000     0.473100000000     0          
C3       C      0.641450000000     0.891450000000     0.486550000000     0          
H1       H      0.652450000000     0.902450000000     0.477600000000     0          
Zn1      Zn     0.603300000000     0.646700000000     0.396700000000     0          
O1       O      0.625000000000     0.625000000000     0.375000000000     0          
O2       O      0.609050000000     0.640950000000     0.433000000000     0          
C1       C      0.625000000000     0.625000000000     0.444350000000     0          
C2       C      0.625000000000     0.625000000000     0.473100000000     0          
C3       C      0.608550000000     0.641450000000     0.486550000000     0          
H1       H      0.597550000000     0.652450000000     0.477600000000     0          
Zn1      Zn     0.853300000000     0.603300000000     0.396700000000     0          
O1       O      0.875000000000     0.625000000000     0.375000000000     0          
O2       O      0.859050000000     0.609050000000     0.433000000000     0          
C1       C      0.875000000000     0.625000000000     0.444350000000     0          
C2       C      0.875000000000     0.625000000000     0.473100000000     0          
C3       C      0.858550000000     0.608550000000     0.486550000000     0          
H1       H      0.847550000000     0.597550000000     0.477600000000     0          
Zn1      Zn     0.896700000000     0.853300000000     0.396700000000     0          
O1       O      0.875000000000     0.875000000000     0.375000000000     0          
O2       O      0.890950000000     0.859050000000     0.433000000000     0          
C1       C      0.875000000000     0.875000000000     0.444350000000     0          
C2       C      0.875000000000     0.875000000000     0.473100000000     0          
C3       C      0.891450000000     0.858550000000     0.486550000000     0          
H1       H      0.902450000000     0.847550000000     0.477600000000     0          
Zn1      Zn     0.603300000000     0.646700000000     0.103300000000     0          
O2       O      0.567000000000     0.640950000000     0.109050000000     0          
C1       C      0.555650000000     0.625000000000     0.125000000000     0          
C2       C      0.526900000000     0.625000000000     0.125000000000     0          
C3       C      0.513450000000     0.641450000000     0.108550000000     0          
H1       H      0.522400000000     0.652450000000     0.097550000000     0          
Zn1      Zn     0.853300000000     0.603300000000     0.103300000000     0          
O2       O      0.859050000000     0.567000000000     0.109050000000     0          
C1       C      0.875000000000     0.555650000000     0.125000000000     0          
C2       C      0.875000000000     0.526900000000     0.125000000000     0          
C3       C      0.858550000000     0.513450000000     0.108550000000     0          
H1       H      0.847550000000     0.522400000000     0.097550000000     0          
Zn1      Zn     0.896700000000     0.853300000000     0.103300000000     0          
O2       O      0.933000000000     0.859050000000     0.109050000000     0          
C1       C      0.944350000000     0.875000000000     0.125000000000     0          
C2       C      0.973100000000     0.875000000000     0.125000000000     0          
C3       C      0.986550000000     0.858550000000     0.108550000000     0          
H1       H      0.977600000000     0.847550000000     0.097550000000     0          
Zn1      Zn     0.646700000000     0.896700000000     0.103300000000     0          
O2       O      0.640950000000     0.933000000000     0.109050000000     0          
C1       C      0.625000000000     0.944350000000     0.125000000000     0          
C2       C      0.625000000000     0.973100000000     0.125000000000     0          
C3       C      0.641450000000     0.986550000000     0.108550000000     0          
H1       H      0.652450000000     0.977600000000     0.097550000000     0          
Zn1      Zn     0.603300000000     0.853300000000     0.396700000000     0          
O2       O      0.567000000000     0.859050000000     0.390950000000     0          
C1       C      0.555650000000     0.875000000000     0.375000000000     0          
C2       C      0.526900000000     0.875000000000     0.375000000000     0          
C3       C      0.513450000000     0.858550000000     0.391450000000     0          
H1       H      0.522400000000     0.847550000000     0.402450000000     0          
Zn1      Zn     0.646700000000     0.603300000000     0.396700000000     0          
O2       O      0.640950000000     0.567000000000     0.390950000000     0          
C1       C      0.625000000000     0.555650000000     0.375000000000     0          
C2       C      0.625000000000     0.526900000000     0.375000000000     0          
C3       C      0.641450000000     0.513450000000     0.391450000000     0          
H1       H      0.652450000000     0.522400000000     0.402450000000     0          
Zn1      Zn     0.896700000000     0.646700000000     0.396700000000     0          
O2       O      0.933000000000     0.640950000000     0.390950000000     0          
C1       C      0.944350000000     0.625000000000     0.375000000000     0          
C2       C      0.973100000000     0.625000000000     0.375000000000     0          
C3       C      0.986550000000     0.641450000000     0.391450000000     0          
H1       H      0.977600000000     0.652450000000     0.402450000000     0          
Zn1      Zn     0.853300000000     0.896700000000     0.396700000000     0          
O2       O      0.859050000000     0.933000000000     0.390950000000     0          
C1       C      0.875000000000     0.944350000000     0.375000000000     0          
C2       C      0.875000000000     0.973100000000     0.375000000000     0          
C3       C      0.858550000000     0.986550000000     0.391450000000     0          
H1       H      0.847550000000     0.977600000000     0.402450000000     0          
Zn1      Zn     0.603300000000     0.603300000000     0.146700000000     0          
O2       O      0.609050000000     0.567000000000     0.140950000000     0          
C1       C      0.625000000000     0.555650000000     0.125000000000     0          
C2       C      0.625000000000     0.526900000000     0.125000000000     0          
C3       C      0.608550000000     0.513450000000     0.141450000000     0          
H1       H      0.597550000000     0.522400000000     0.152450000000     0          
Zn1      Zn     0.603300000000     0.896700000000     0.353300000000     0          
O2       O      0.609050000000     0.933000000000     0.359050000000     0          
C1       C      0.625000000000     0.944350000000     0.375000000000     0          
C2       C      0.625000000000     0.973100000000     0.375000000000     0          
C3       C      0.608550000000     0.986550000000     0.358550000000     0          
H1       H      0.597550000000     0.977600000000     0.347550000000     0          
Zn1      Zn     0.603300000000     0.603300000000     0.353300000000     0          
O2       O      0.567000000000     0.609050000000     0.359050000000     0          
C1       C      0.555650000000     0.625000000000     0.375000000000     0          
C2       C      0.526900000000     0.625000000000     0.375000000000     0          
C3       C      0.513450000000     0.608550000000     0.358550000000     0          
H1       H      0.522400000000     0.597550000000     0.347550000000     0          
Zn1      Zn     0.896700000000     0.603300000000     0.353300000000     0          
O2       O      0.890950000000     0.567000000000     0.359050000000     0          
C1       C      0.875000000000     0.555650000000     0.375000000000     0          
C2       C      0.875000000000     0.526900000000     0.375000000000     0          
C3       C      0.891450000000     0.513450000000     0.358550000000     0          
H1       H      0.902450000000     0.522400000000     0.347550000000     0          
Zn1      Zn     0.896700000000     0.896700000000     0.353300000000     0          
O2       O      0.933000000000     0.890950000000     0.359050000000     0          
C1       C      0.944350000000     0.875000000000     0.375000000000     0          
C2       C      0.973100000000     0.875000000000     0.375000000000     0          
C3       C      0.986550000000     0.891450000000     0.358550000000     0          
H1       H      0.977600000000     0.902450000000     0.347550000000     0          
Zn1      Zn     0.896700000000     0.896700000000     0.146700000000     0          
O2       O      0.890950000000     0.933000000000     0.140950000000     0          
C1       C      0.875000000000     0.944350000000     0.125000000000     0          
C2       C      0.875000000000     0.973100000000     0.125000000000     0          
C3       C      0.891450000000     0.986550000000     0.141450000000     0          
H1       H      0.902450000000     0.977600000000     0.152450000000     0          
Zn1      Zn     0.603300000000     0.896700000000     0.146700000000     0          
O2       O      0.567000000000     0.890950000000     0.140950000000     0          
C1       C      0.555650000000     0.875000000000     0.125000000000     0          
C2       C      0.526900000000     0.875000000000     0.125000000000     0          
C3       C      0.513450000000     0.891450000000     0.141450000000     0          
H1       H      0.522400000000     0.902450000000     0.152450000000     0          
Zn1      Zn     0.896700000000     0.603300000000     0.146700000000     0          
O2       O      0.933000000000     0.609050000000     0.140950000000     0          
C1       C      0.944350000000     0.625000000000     0.125000000000     0          
C2       C      0.973100000000     0.625000000000     0.125000000000     0          
C3       C      0.986550000000     0.608550000000     0.141450000000     0          
H1       H      0.977600000000     0.597550000000     0.152450000000     0          
O2       O      0.859050000000     0.890950000000     0.433000000000     0          
C3       C      0.858550000000     0.891450000000     0.486550000000     0          
H1       H      0.847550000000     0.902450000000     0.477600000000     0          
O2       O      0.609050000000     0.859050000000     0.433000000000     0          
C3       C      0.608550000000     0.858550000000     0.486550000000     0          
H1       H      0.597550000000     0.847550000000     0.477600000000     0          
O2       O      0.640950000000     0.609050000000     0.433000000000     0          
C3       C      0.641450000000     0.608550000000     0.486550000000     0          
H1       H      0.652450000000     0.597550000000     0.477600000000     0          
O2       O      0.890950000000     0.640950000000     0.433000000000     0          
C3       C      0.891450000000     0.641450000000     0.486550000000     0          
H1       H      0.902450000000     0.652450000000     0.477600000000     0          
O2       O      0.859050000000     0.609050000000     0.067000000000     0          
C3       C      0.858550000000     0.608550000000     0.013450000000     0          
H1       H      0.847550000000     0.597550000000     0.022400000000     0          
O2       O      0.890950000000     0.859050000000     0.067000000000     0          
C3       C      0.891450000000     0.858550000000     0.013450000000     0          
H1       H      0.902450000000     0.847550000000     0.022400000000     0          
O2       O      0.640950000000     0.890950000000     0.067000000000     0          
C3       C      0.641450000000     0.891450000000     0.013450000000     0          
H1       H      0.652450000000     0.902450000000     0.022400000000     0          
O2       O      0.609050000000     0.640950000000     0.067000000000     0          
C3       C      0.608550000000     0.641450000000     0.013450000000     0          
H1       H      0.597550000000     0.652450000000     0.022400000000     0          
O2       O      0.933000000000     0.859050000000     0.390950000000     0          
C3       C      0.986550000000     0.858550000000     0.391450000000     0          
H1       H      0.977600000000     0.847550000000     0.402450000000     0          
O2       O      0.640950000000     0.933000000000     0.390950000000     0          
C3       C      0.641450000000     0.986550000000     0.391450000000     0          
H1       H      0.652450000000     0.977600000000     0.402450000000     0          
O2       O      0.567000000000     0.640950000000     0.390950000000     0          
C3       C      0.513450000000     0.641450000000     0.391450000000     0          
H1       H      0.522400000000     0.652450000000     0.402450000000     0          
O2       O      0.859050000000     0.567000000000     0.390950000000     0          
C3       C      0.858550000000     0.513450000000     0.391450000000     0          
H1       H      0.847550000000     0.522400000000     0.402450000000     0          
O2       O      0.933000000000     0.640950000000     0.109050000000     0          
C3       C      0.986550000000     0.641450000000     0.108550000000     0          
H1       H      0.977600000000     0.652450000000     0.097550000000     0          
O2       O      0.859050000000     0.933000000000     0.109050000000     0          
C3       C      0.858550000000     0.986550000000     0.108550000000     0          
H1       H      0.847550000000     0.977600000000     0.097550000000     0          
O2       O      0.567000000000     0.859050000000     0.109050000000     0          
C3       C      0.513450000000     0.858550000000     0.108550000000     0          
H1       H      0.522400000000     0.847550000000     0.097550000000     0          
O2       O      0.640950000000     0.567000000000     0.109050000000     0          
C3       C      0.641450000000     0.513450000000     0.108550000000     0          
H1       H      0.652450000000     0.522400000000     0.097550000000     0          
O2       O      0.890950000000     0.933000000000     0.359050000000     0          
C3       C      0.891450000000     0.986550000000     0.358550000000     0          
H1       H      0.902450000000     0.977600000000     0.347550000000     0          
O2       O      0.890950000000     0.567000000000     0.140950000000     0          
C3       C      0.891450000000     0.513450000000     0.141450000000     0          
H1       H      0.902450000000     0.522400000000     0.152450000000     0          
O2       O      0.933000000000     0.890950000000     0.140950000000     0          
C3       C      0.986550000000     0.891450000000     0.141450000000     0          
H1       H      0.977600000000     0.902450000000     0.152450000000     0          
O2       O      0.609050000000     0.933000000000     0.140950000000     0          
C3       C      0.608550000000     0.986550000000     0.141450000000     0          
H1       H      0.597550000000     0.977600000000     0.152450000000     0          
O2       O      0.567000000000     0.609050000000     0.140950000000     0          
C3       C      0.513450000000     0.608550000000     0.141450000000     0          
H1       H      0.522400000000     0.597550000000     0.152450000000     0          
O2       O      0.609050000000     0.567000000000     0.359050000000     0          
C3       C      0.608550000000     0.513450000000     0.358550000000     0          
H1       H      0.597550000000     0.522400000000     0.347550000000     0          
O2       O      0.933000000000     0.609050000000     0.359050000000     0          
C3       C      0.986550000000     0.608550000000     0.358550000000     0          
H1       H      0.977600000000     0.597550000000     0.347550000000     0          
O2       O      0.567000000000     0.890950000000     0.359050000000     0          
C3       C      0.513450000000     0.891450000000     0.358550000000     0          
H1       H      0.522400000000     0.902450000000     0.347550000000     0          
Zn1      Zn     0.646700000000     0.853300000000     0.353300000000     0          
O2       O      0.640950000000     0.859050000000     0.317000000000     0          
C1       C      0.625000000000     0.875000000000     0.305650000000     0          
C2       C      0.625000000000     0.875000000000     0.276900000000     0          
C3       C      0.641450000000     0.858550000000     0.263450000000     0          
H1       H      0.652450000000     0.847550000000     0.272400000000     0          
O2       O      0.890950000000     0.890950000000     0.317000000000     0          
C1       C      0.875000000000     0.875000000000     0.305650000000     0          
C2       C      0.875000000000     0.875000000000     0.276900000000     0          
C3       C      0.891450000000     0.891450000000     0.263450000000     0          
H1       H      0.902450000000     0.902450000000     0.272400000000     0          
Zn1      Zn     0.853300000000     0.646700000000     0.353300000000     0          
O2       O      0.859050000000     0.640950000000     0.317000000000     0          
C1       C      0.875000000000     0.625000000000     0.305650000000     0          
C2       C      0.875000000000     0.625000000000     0.276900000000     0          
C3       C      0.858550000000     0.641450000000     0.263450000000     0          
H1       H      0.847550000000     0.652450000000     0.272400000000     0          
O2       O      0.609050000000     0.609050000000     0.317000000000     0          
C1       C      0.625000000000     0.625000000000     0.305650000000     0          
C2       C      0.625000000000     0.625000000000     0.276900000000     0          
C3       C      0.608550000000     0.608550000000     0.263450000000     0          
H1       H      0.597550000000     0.597550000000     0.272400000000     0          
Zn1      Zn     0.646700000000     0.646700000000     0.146700000000     0          
O2       O      0.640950000000     0.640950000000     0.183000000000     0          
C1       C      0.625000000000     0.625000000000     0.194350000000     0          
C2       C      0.625000000000     0.625000000000     0.223100000000     0          
C3       C      0.641450000000     0.641450000000     0.236550000000     0          
H1       H      0.652450000000     0.652450000000     0.227600000000     0          
O2       O      0.609050000000     0.890950000000     0.183000000000     0          
C1       C      0.625000000000     0.875000000000     0.194350000000     0          
C2       C      0.625000000000     0.875000000000     0.223100000000     0          
C3       C      0.608550000000     0.891450000000     0.236550000000     0          
H1       H      0.597550000000     0.902450000000     0.227600000000     0          
Zn1      Zn     0.853300000000     0.853300000000     0.146700000000     0          
O2       O      0.859050000000     0.859050000000     0.183000000000     0          
C1       C      0.875000000000     0.875000000000     0.194350000000     0          
C2       C      0.875000000000     0.875000000000     0.223100000000     0          
C3       C      0.858550000000     0.858550000000     0.236550000000     0          
H1       H      0.847550000000     0.847550000000     0.227600000000     0          
O2       O      0.890950000000     0.609050000000     0.183000000000     0          
C1       C      0.875000000000     0.625000000000     0.194350000000     0          
C2       C      0.875000000000     0.625000000000     0.223100000000     0          
C3       C      0.891450000000     0.608550000000     0.236550000000     0          
H1       H      0.902450000000     0.597550000000     0.227600000000     0          
Zn1      Zn     0.853300000000     0.853300000000     0.353300000000     0          
O2       O      0.859050000000     0.817000000000     0.359050000000     0          
C1       C      0.875000000000     0.805650000000     0.375000000000     0          
C2       C      0.875000000000     0.776900000000     0.375000000000     0          
C3       C      0.858550000000     0.763450000000     0.358550000000     0          
H1       H      0.847550000000     0.772400000000     0.347550000000     0          
Zn1      Zn     0.646700000000     0.646700000000     0.353300000000     0          
O2       O      0.640950000000     0.683000000000     0.359050000000     0          
C1       C      0.625000000000     0.694350000000     0.375000000000     0          
C2       C      0.625000000000     0.723100000000     0.375000000000     0          
C3       C      0.641450000000     0.736550000000     0.358550000000     0          
H1       H      0.652450000000     0.727600000000     0.347550000000     0          
Zn1      Zn     0.646700000000     0.853300000000     0.146700000000     0          
O2       O      0.640950000000     0.817000000000     0.140950000000     0          
C1       C      0.625000000000     0.805650000000     0.125000000000     0          
C2       C      0.625000000000     0.776900000000     0.125000000000     0          
C3       C      0.641450000000     0.763450000000     0.141450000000     0          
H1       H      0.652450000000     0.772400000000     0.152450000000     0          
Zn1      Zn     0.853300000000     0.646700000000     0.146700000000     0          
O2       O      0.859050000000     0.683000000000     0.140950000000     0          
C1       C      0.875000000000     0.694350000000     0.125000000000     0          
C2       C      0.875000000000     0.723100000000     0.125000000000     0          
C3       C      0.858550000000     0.736550000000     0.141450000000     0          
H1       H      0.847550000000     0.727600000000     0.152450000000     0          
O2       O      0.609050000000     0.817000000000     0.390950000000     0          
C1       C      0.625000000000     0.805650000000     0.375000000000     0          
C2       C      0.625000000000     0.776900000000     0.375000000000     0          
C3       C      0.608550000000     0.763450000000     0.391450000000     0          
H1       H      0.597550000000     0.772400000000     0.402450000000     0          
O2       O      0.609050000000     0.683000000000     0.109050000000     0          
C1       C      0.625000000000     0.694350000000     0.125000000000     0          
C2       C      0.625000000000     0.723100000000     0.125000000000     0          
C3       C      0.608550000000     0.736550000000     0.108550000000     0          
H1       H      0.597550000000     0.727600000000     0.097550000000     0          
O2       O      0.890950000000     0.817000000000     0.109050000000     0          
C1       C      0.875000000000     0.805650000000     0.125000000000     0          
C2       C      0.875000000000     0.776900000000     0.125000000000     0          
C3       C      0.891450000000     0.763450000000     0.108550000000     0          
H1       H      0.902450000000     0.772400000000     0.097550000000     0          
O2       O      0.890950000000     0.683000000000     0.390950000000     0          
C1       C      0.875000000000     0.694350000000     0.375000000000     0          
C2       C      0.875000000000     0.723100000000     0.375000000000     0          
C3       C      0.891450000000     0.736550000000     0.391450000000     0          
H1       H      0.902450000000     0.727600000000     0.402450000000     0          
O2       O      0.859050000000     0.640950000000     0.183000000000     0          
C3       C      0.858550000000     0.641450000000     0.236550000000     0          
H1       H      0.847550000000     0.652450000000     0.227600000000     0          
O2       O      0.609050000000     0.609050000000     0.183000000000     0          
C3       C      0.608550000000     0.608550000000     0.236550000000     0          
H1       H      0.597550000000     0.597550000000     0.227600000000     0          
O2       O      0.640950000000     0.859050000000     0.183000000000     0          
C3       C      0.641450000000     0.858550000000     0.236550000000     0          
H1       H      0.652450000000     0.847550000000     0.227600000000     0          
O2       O      0.890950000000     0.890950000000     0.183000000000     0          
C3       C      0.891450000000     0.891450000000     0.236550000000     0          
H1       H      0.902450000000     0.902450000000     0.227600000000     0          
O2       O      0.859050000000     0.859050000000     0.317000000000     0          
C3       C      0.858550000000     0.858550000000     0.263450000000     0          
H1       H      0.847550000000     0.847550000000     0.272400000000     0          
O2       O      0.890950000000     0.609050000000     0.317000000000     0          
C3       C      0.891450000000     0.608550000000     0.263450000000     0          
H1       H      0.902450000000     0.597550000000     0.272400000000     0          
O2       O      0.640950000000     0.640950000000     0.317000000000     0          
C3       C      0.641450000000     0.641450000000     0.263450000000     0          
H1       H      0.652450000000     0.652450000000     0.272400000000     0          
O2       O      0.609050000000     0.890950000000     0.317000000000     0          
C3       C      0.608550000000     0.891450000000     0.263450000000     0          
H1       H      0.597550000000     0.902450000000     0.272400000000     0          
O2       O      0.640950000000     0.683000000000     0.140950000000     0          
C3       C      0.641450000000     0.736550000000     0.141450000000     0          
H1       H      0.652450000000     0.727600000000     0.152450000000     0          
O2       O      0.859050000000     0.817000000000     0.140950000000     0          
C3       C      0.858550000000     0.763450000000     0.141450000000     0          
H1       H      0.847550000000     0.772400000000     0.152450000000     0          
O2       O      0.859050000000     0.683000000000     0.359050000000     0          
C3       C      0.858550000000     0.736550000000     0.358550000000     0          
H1       H      0.847550000000     0.727600000000     0.347550000000     0          
O2       O      0.640950000000     0.817000000000     0.359050000000     0          
C3       C      0.641450000000     0.763450000000     0.358550000000     0          
H1       H      0.652450000000     0.772400000000     0.347550000000     0          
O2       O      0.890950000000     0.683000000000     0.109050000000     0          
C3       C      0.891450000000     0.736550000000     0.108550000000     0          
H1       H      0.902450000000     0.727600000000     0.097550000000     0          
O2       O      0.890950000000     0.817000000000     0.390950000000     0          
C3       C      0.891450000000     0.763450000000     0.391450000000     0          
H1       H      0.902450000000     0.772400000000     0.402450000000     0          
O2       O      0.609050000000     0.683000000000     0.390950000000     0          
C3       C      0.608550000000     0.736550000000     0.391450000000     0          
H1       H      0.597550000000     0.727600000000     0.402450000000     0          
O2       O      0.609050000000     0.817000000000     0.109050000000     0          
C3       C      0.608550000000     0.763450000000     0.108550000000     0          
H1       H      0.597550000000     0.772400000000     0.097550000000     0          
O2       O      0.817000000000     0.640950000000     0.359050000000     0          
C1       C      0.805650000000     0.625000000000     0.375000000000     0          
C2       C      0.776900000000     0.625000000000     0.375000000000     0          
C3       C      0.763450000000     0.641450000000     0.358550000000     0          
H1       H      0.772400000000     0.652450000000     0.347550000000     0          
O2       O      0.683000000000     0.859050000000     0.359050000000     0          
C1       C      0.694350000000     0.875000000000     0.375000000000     0          
C2       C      0.723100000000     0.875000000000     0.375000000000     0          
C3       C      0.736550000000     0.858550000000     0.358550000000     0          
H1       H      0.727600000000     0.847550000000     0.347550000000     0          
O2       O      0.817000000000     0.859050000000     0.140950000000     0          
C1       C      0.805650000000     0.875000000000     0.125000000000     0          
C2       C      0.776900000000     0.875000000000     0.125000000000     0          
C3       C      0.763450000000     0.858550000000     0.141450000000     0          
H1       H      0.772400000000     0.847550000000     0.152450000000     0          
O2       O      0.683000000000     0.640950000000     0.140950000000     0          
C1       C      0.694350000000     0.625000000000     0.125000000000     0          
C2       C      0.723100000000     0.625000000000     0.125000000000     0          
C3       C      0.736550000000     0.641450000000     0.141450000000     0          
H1       H      0.727600000000     0.652450000000     0.152450000000     0          
O2       O      0.817000000000     0.609050000000     0.109050000000     0          
C1       C      0.805650000000     0.625000000000     0.125000000000     0          
C2       C      0.776900000000     0.625000000000     0.125000000000     0          
C3       C      0.763450000000     0.608550000000     0.108550000000     0          
H1       H      0.772400000000     0.597550000000     0.097550000000     0          
O2       O      0.683000000000     0.890950000000     0.109050000000     0          
C1       C      0.694350000000     0.875000000000     0.125000000000     0          
C2       C      0.723100000000     0.875000000000     0.125000000000     0          
C3       C      0.736550000000     0.891450000000     0.108550000000     0          
H1       H      0.727600000000     0.902450000000     0.097550000000     0          
O2       O      0.817000000000     0.890950000000     0.390950000000     0          
C1       C      0.805650000000     0.875000000000     0.375000000000     0          
C2       C      0.776900000000     0.875000000000     0.375000000000     0          
C3       C      0.763450000000     0.891450000000     0.391450000000     0          
H1       H      0.772400000000     0.902450000000     0.402450000000     0          
O2       O      0.683000000000     0.609050000000     0.390950000000     0          
C1       C      0.694350000000     0.625000000000     0.375000000000     0          
C2       C      0.723100000000     0.625000000000     0.375000000000     0          
C3       C      0.736550000000     0.608550000000     0.391450000000     0          
H1       H      0.727600000000     0.597550000000     0.402450000000     0          
O2       O      0.683000000000     0.859050000000     0.140950000000     0          
C3       C      0.736550000000     0.858550000000     0.141450000000     0          
H1       H      0.727600000000     0.847550000000     0.152450000000     0          
O2       O      0.817000000000     0.640950000000     0.140950000000     0          
C3       C      0.763450000000     0.641450000000     0.141450000000     0          
H1       H      0.772400000000     0.652450000000     0.152450000000     0          
O2       O      0.683000000000     0.640950000000     0.359050000000     0          
C3       C      0.736550000000     0.641450000000     0.358550000000     0          
H1       H      0.727600000000     0.652450000000     0.347550000000     0          
O2       O      0.817000000000     0.859050000000     0.359050000000     0          
C3       C      0.763450000000     0.858550000000     0.358550000000     0          
H1       H      0.772400000000     0.847550000000     0.347550000000     0          
O2       O      0.683000000000     0.890950000000     0.390950000000     0          
C3       C      0.736550000000     0.891450000000     0.391450000000     0          
H1       H      0.727600000000     0.902450000000     0.402450000000     0          
O2       O      0.817000000000     0.609050000000     0.390950000000     0          
C3       C      0.763450000000     0.608550000000     0.391450000000     0          
H1       H      0.772400000000     0.597550000000     0.402450000000     0          
O2       O      0.683000000000     0.609050000000     0.109050000000     0          
C3       C      0.736550000000     0.608550000000     0.108550000000     0          
H1       H      0.727600000000     0.597550000000     0.097550000000     0          
O2       O      0.817000000000     0.890950000000     0.109050000000     0          
C3       C      0.763450000000     0.891450000000     0.108550000000     0          
H1       H      0.772400000000     0.902450000000     0.097550000000     0          
Zn1      Zn     0.646700000000     0.603300000000     0.603300000000     0          
O1       O      0.625000000000     0.625000000000     0.625000000000     0          
O2       O      0.640950000000     0.609050000000     0.567000000000     0          
C1       C      0.625000000000     0.625000000000     0.555650000000     0          
C2       C      0.625000000000     0.625000000000     0.526900000000     0          
C3       C      0.641450000000     0.608550000000     0.513450000000     0          
H1       H      0.652450000000     0.597550000000     0.522400000000     0          
Zn1      Zn     0.896700000000     0.646700000000     0.603300000000     0          
O1       O      0.875000000000     0.625000000000     0.625000000000     0          
O2       O      0.890950000000     0.640950000000     0.567000000000     0          
C1       C      0.875000000000     0.625000000000     0.555650000000     0          
C2       C      0.875000000000     0.625000000000     0.526900000000     0          
C3       C      0.891450000000     0.641450000000     0.513450000000     0          
H1       H      0.902450000000     0.652450000000     0.522400000000     0          
Zn1      Zn     0.853300000000     0.896700000000     0.603300000000     0          
O1       O      0.875000000000     0.875000000000     0.625000000000     0          
O2       O      0.859050000000     0.890950000000     0.567000000000     0          
C1       C      0.875000000000     0.875000000000     0.555650000000     0          
C2       C      0.875000000000     0.875000000000     0.526900000000     0          
C3       C      0.858550000000     0.891450000000     0.513450000000     0          
H1       H      0.847550000000     0.902450000000     0.522400000000     0          
Zn1      Zn     0.603300000000     0.853300000000     0.603300000000     0          
O1       O      0.625000000000     0.875000000000     0.625000000000     0          
O2       O      0.609050000000     0.859050000000     0.567000000000     0          
C1       C      0.625000000000     0.875000000000     0.555650000000     0          
C2       C      0.625000000000     0.875000000000     0.526900000000     0          
C3       C      0.608550000000     0.858550000000     0.513450000000     0          
H1       H      0.597550000000     0.847550000000     0.522400000000     0          
Zn1      Zn     0.646700000000     0.896700000000     0.896700000000     0          
O1       O      0.625000000000     0.875000000000     0.875000000000     0          
O2       O      0.640950000000     0.890950000000     0.933000000000     0          
C1       C      0.625000000000     0.875000000000     0.944350000000     0          
C2       C      0.625000000000     0.875000000000     0.973100000000     0          
C3       C      0.641450000000     0.891450000000     0.986550000000     0          
H1       H      0.652450000000     0.902450000000     0.977600000000     0          
Zn1      Zn     0.603300000000     0.646700000000     0.896700000000     0          
O1       O      0.625000000000     0.625000000000     0.875000000000     0          
O2       O      0.609050000000     0.640950000000     0.933000000000     0          
C1       C      0.625000000000     0.625000000000     0.944350000000     0          
C2       C      0.625000000000     0.625000000000     0.973100000000     0          
C3       C      0.608550000000     0.641450000000     0.986550000000     0          
H1       H      0.597550000000     0.652450000000     0.977600000000     0          
Zn1      Zn     0.853300000000     0.603300000000     0.896700000000     0          
O1       O      0.875000000000     0.625000000000     0.875000000000     0          
O2       O      0.859050000000     0.609050000000     0.933000000000     0          
C1       C      0.875000000000     0.625000000000     0.944350000000     0          
C2       C      0.875000000000     0.625000000000     0.973100000000     0          
C3       C      0.858550000000     0.608550000000     0.986550000000     0          
H1       H      0.847550000000     0.597550000000     0.977600000000     0          
Zn1      Zn     0.896700000000     0.853300000000     0.896700000000     0          
O1       O      0.875000000000     0.875000000000     0.875000000000     0          
O2       O      0.890950000000     0.859050000000     0.933000000000     0          
C1       C      0.875000000000     0.875000000000     0.944350000000     0          
C2       C      0.875000000000     0.875000000000     0.973100000000     0          
C3       C      0.891450000000     0.858550000000     0.986550000000     0          
H1       H      0.902450000000     0.847550000000     0.977600000000     0          
Zn1      Zn     0.603300000000     0.646700000000     0.603300000000     0          
O2       O      0.567000000000     0.640950000000     0.609050000000     0          
C1       C      0.555650000000     0.625000000000     0.625000000000     0          
C2       C      0.526900000000     0.625000000000     0.625000000000     0          
C3       C      0.513450000000     0.641450000000     0.608550000000     0          
H1       H      0.522400000000     0.652450000000     0.597550000000     0          
Zn1      Zn     0.853300000000     0.603300000000     0.603300000000     0          
O2       O      0.859050000000     0.567000000000     0.609050000000     0          
C1       C      0.875000000000     0.555650000000     0.625000000000     0          
C2       C      0.875000000000     0.526900000000     0.625000000000     0          
C3       C      0.858550000000     0.513450000000     0.608550000000     0          
H1       H      0.847550000000     0.522400000000     0.597550000000     0          
Zn1      Zn     0.896700000000     0.853300000000     0.603300000000     0          
O2       O      0.933000000000     0.859050000000     0.609050000000     0          
C1       C      0.944350000000     0.875000000000     0.625000000000     0          
C2       C      0.973100000000     0.875000000000     0.625000000000     0          
C3       C      0.986550000000     0.858550000000     0.608550000000     0          
H1       H      0.977600000000     0.847550000000     0.597550000000     0          
Zn1      Zn     0.646700000000     0.896700000000     0.603300000000     0          
O2       O      0.640950000000     0.933000000000     0.609050000000     0          
C1       C      0.625000000000     0.944350000000     0.625000000000     0          
C2       C      0.625000000000     0.973100000000     0.625000000000     0          
C3       C      0.641450000000     0.986550000000     0.608550000000     0          
H1       H      0.652450000000     0.977600000000     0.597550000000     0          
Zn1      Zn     0.603300000000     0.853300000000     0.896700000000     0          
O2       O      0.567000000000     0.859050000000     0.890950000000     0          
C1       C      0.555650000000     0.875000000000     0.875000000000     0          
C2       C      0.526900000000     0.875000000000     0.875000000000     0          
C3       C      0.513450000000     0.858550000000     0.891450000000     0          
H1       H      0.522400000000     0.847550000000     0.902450000000     0          
Zn1      Zn     0.646700000000     0.603300000000     0.896700000000     0          
O2       O      0.640950000000     0.567000000000     0.890950000000     0          
C1       C      0.625000000000     0.555650000000     0.875000000000     0          
C2       C      0.625000000000     0.526900000000     0.875000000000     0          
C3       C      0.641450000000     0.513450000000     0.891450000000     0          
H1       H      0.652450000000     0.522400000000     0.902450000000     0          
Zn1      Zn     0.896700000000     0.646700000000     0.896700000000     0          
O2       O      0.933000000000     0.640950000000     0.890950000000     0          
C1       C      0.944350000000     0.625000000000     0.875000000000     0          
C2       C      0.973100000000     0.625000000000     0.875000000000     0          
C3       C      0.986550000000     0.641450000000     0.891450000000     0          
H1       H      0.977600000000     0.652450000000     0.902450000000     0          
Zn1      Zn     0.853300000000     0.896700000000     0.896700000000     0          
O2       O      0.859050000000     0.933000000000     0.890950000000     0          
C1       C      0.875000000000     0.944350000000     0.875000000000     0          
C2       C      0.875000000000     0.973100000000     0.875000000000     0          
C3       C      0.858550000000     0.986550000000     0.891450000000     0          
H1       H      0.847550000000     0.977600000000     0.902450000000     0          
Zn1      Zn     0.603300000000     0.603300000000     0.646700000000     0          
O2       O      0.609050000000     0.567000000000     0.640950000000     0          
C1       C      0.625000000000     0.555650000000     0.625000000000     0          
C2       C      0.625000000000     0.526900000000     0.625000000000     0          
C3       C      0.608550000000     0.513450000000     0.641450000000     0          
H1       H      0.597550000000     0.522400000000     0.652450000000     0          
Zn1      Zn     0.603300000000     0.896700000000     0.853300000000     0          
O2       O      0.609050000000     0.933000000000     0.859050000000     0          
C1       C      0.625000000000     0.944350000000     0.875000000000     0          
C2       C      0.625000000000     0.973100000000     0.875000000000     0          
C3       C      0.608550000000     0.986550000000     0.858550000000     0          
H1       H      0.597550000000     0.977600000000     0.847550000000     0          
Zn1      Zn     0.603300000000     0.603300000000     0.853300000000     0          
O2       O      0.567000000000     0.609050000000     0.859050000000     0          
C1       C      0.555650000000     0.625000000000     0.875000000000     0          
C2       C      0.526900000000     0.625000000000     0.875000000000     0          
C3       C      0.513450000000     0.608550000000     0.858550000000     0          
H1       H      0.522400000000     0.597550000000     0.847550000000     0          
Zn1      Zn     0.896700000000     0.603300000000     0.853300000000     0          
O2       O      0.890950000000     0.567000000000     0.859050000000     0          
C1       C      0.875000000000     0.555650000000     0.875000000000     0          
C2       C      0.875000000000     0.526900000000     0.875000000000     0          
C3       C      0.891450000000     0.513450000000     0.858550000000     0          
H1       H      0.902450000000     0.522400000000     0.847550000000     0          
Zn1      Zn     0.896700000000     0.896700000000     0.853300000000     0          
O2       O      0.933000000000     0.890950000000     0.859050000000     0          
C1       C      0.944350000000     0.875000000000     0.875000000000     0          
C2       C      0.973100000000     0.875000000000     0.875000000000     0          
C3       C      0.986550000000     0.891450000000     0.858550000000     0          
H1       H      0.977600000000     0.902450000000     0.847550000000     0          
Zn1      Zn     0.896700000000     0.896700000000     0.646700000000     0          
O2       O      0.890950000000     0.933000000000     0.640950000000     0          
C1       C      0.875000000000     0.944350000000     0.625000000000     0          
C2       C      0.875000000000     0.973100000000     0.625000000000     0          
C3       C      0.891450000000     0.986550000000     0.641450000000     0          
H1       H      0.902450000000     0.977600000000     0.652450000000     0          
Zn1      Zn     0.603300000000     0.896700000000     0.646700000000     0          
O2       O      0.567000000000     0.890950000000     0.640950000000     0          
C1       C      0.555650000000     0.875000000000     0.625000000000     0          
C2       C      0.526900000000     0.875000000000     0.625000000000     0          
C3       C      0.513450000000     0.891450000000     0.641450000000     0          
H1       H      0.522400000000     0.902450000000     0.652450000000     0          
Zn1      Zn     0.896700000000     0.603300000000     0.646700000000     0          
O2       O      0.933000000000     0.609050000000     0.640950000000     0          
C1       C      0.944350000000     0.625000000000     0.625000000000     0          
C2       C      0.973100000000     0.625000000000     0.625000000000     0          
C3       C      0.986550000000     0.608550000000     0.641450000000     0          
H1       H      0.977600000000     0.597550000000     0.652450000000     0          
O2       O      0.859050000000     0.890950000000     0.933000000000     0          
C3       C      0.858550000000     0.891450000000     0.986550000000     0          
H1       H      0.847550000000     0.902450000000     0.977600000000     0          
O2       O      0.609050000000     0.859050000000     0.933000000000     0          
C3       C      0.608550000000     0.858550000000     0.986550000000     0          
H1       H      0.597550000000     0.847550000000     0.977600000000     0          
O2       O      0.640950000000     0.609050000000     0.933000000000     0          
C3       C      0.641450000000     0.608550000000     0.986550000000     0          
H1       H      0.652450000000     0.597550000000     0.977600000000     0          
O2       O      0.890950000000     0.640950000000     0.933000000000     0          
C3       C      0.891450000000     0.641450000000     0.986550000000     0          
H1       H      0.902450000000     0.652450000000     0.977600000000     0          
O2       O      0.859050000000     0.609050000000     0.567000000000     0          
C3       C      0.858550000000     0.608550000000     0.513450000000     0          
H1       H      0.847550000000     0.597550000000     0.522400000000     0          
O2       O      0.890950000000     0.859050000000     0.567000000000     0          
C3       C      0.891450000000     0.858550000000     0.513450000000     0          
H1       H      0.902450000000     0.847550000000     0.522400000000     0          
O2       O      0.640950000000     0.890950000000     0.567000000000     0          
C3       C      0.641450000000     0.891450000000     0.513450000000     0          
H1       H      0.652450000000     0.902450000000     0.522400000000     0          
O2       O      0.609050000000     0.640950000000     0.567000000000     0          
C3       C      0.608550000000     0.641450000000     0.513450000000     0          
H1       H      0.597550000000     0.652450000000     0.522400000000     0          
O2       O      0.933000000000     0.859050000000     0.890950000000     0          
C3       C      0.986550000000     0.858550000000     0.891450000000     0          
H1       H      0.977600000000     0.847550000000     0.902450000000     0          
O2       O      0.640950000000     0.933000000000     0.890950000000     0          
C3       C      0.641450000000     0.986550000000     0.891450000000     0          
H1       H      0.652450000000     0.977600000000     0.902450000000     0          
O2       O      0.567000000000     0.640950000000     0.890950000000     0          
C3       C      0.513450000000     0.641450000000     0.891450000000     0          
H1       H      0.522400000000     0.652450000000     0.902450000000     0          
O2       O      0.859050000000     0.567000000000     0.890950000000     0          
C3       C      0.858550000000     0.513450000000     0.891450000000     0          
H1       H      0.847550000000     0.522400000000     0.902450000000     0          
O2       O      0.933000000000     0.640950000000     0.609050000000     0          
C3       C      0.986550000000     0.641450000000     0.608550000000     0          
H1       H      0.977600000000     0.652450000000     0.597550000000     0          
O2       O      0.859050000000     0.933000000000     0.609050000000     0          
C3       C      0.858550000000     0.986550000000     0.608550000000     0          
H1       H      0.847550000000     0.977600000000     0.597550000000     0          
O2       O      0.567000000000     0.859050000000     0.609050000000     0          
C3       C      0.513450000000     0.858550000000     0.608550000000     0          
H1       H      0.522400000000     0.847550000000     0.597550000000     0          
O2       O      0.640950000000     0.567000000000     0.609050000000     0          
C3       C      0.641450000000     0.513450000000     0.608550000000     0          
H1       H      0.652450000000     0.522400000000     0.597550000000     0          
O2       O      0.890950000000     0.933000000000     0.859050000000     0          
C3       C      0.891450000000     0.986550000000     0.858550000000     0          
H1       H      0.902450000000     0.977600000000     0.847550000000     0          
O2       O      0.890950000000     0.567000000000     0.640950000000     0          
C3       C      0.891450000000     0.513450000000     0.641450000000     0          
H1       H      0.902450000000     0.522400000000     0.652450000000     0          
O2       O      0.933000000000     0.890950000000     0.640950000000     0          
C3       C      0.986550000000     0.891450000000     0.641450000000     0          
H1       H      0.977600000000     0.902450000000     0.652450000000     0          
O2       O      0.609050000000     0.933000000000     0.640950000000     0          
C3       C      0.608550000000     0.986550000000     0.641450000000     0          
H1       H      0.597550000000     0.977600000000     0.652450000000     0          
O2       O      0.567000000000     0.609050000000     0.640950000000     0          
C3       C      0.513450000000     0.608550000000     0.641450000000     0          
H1       H      0.522400000000     0.597550000000     0.652450000000     0          
O2       O      0.609050000000     0.567000000000     0.859050000000     0          
C3       C      0.608550000000     0.513450000000     0.858550000000     0          
H1       H      0.597550000000     0.522400000000     0.847550000000     0          
O2       O      0.933000000000     0.609050000000     0.859050000000     0          
C3       C      0.986550000000     0.608550000000     0.858550000000     0          
H1       H      0.977600000000     0.597550000000     0.847550000000     0          
O2       O      0.567000000000     0.890950000000     0.859050000000     0          
C3       C      0.513450000000     0.891450000000     0.858550000000     0          
H1       H      0.522400000000     0.902450000000     0.847550000000     0          
Zn1      Zn     0.646700000000     0.853300000000     0.853300000000     0          
O2       O      0.640950000000     0.859050000000     0.817000000000     0          
C1       C      0.625000000000     0.875000000000     0.805650000000     0          
C2       C      0.625000000000     0.875000000000     0.776900000000     0          
C3       C      0.641450000000     0.858550000000     0.763450000000     0          
H1       H      0.652450000000     0.847550000000     0.772400000000     0          
O2       O      0.890950000000     0.890950000000     0.817000000000     0          
C1       C      0.875000000000     0.875000000000     0.805650000000     0          
C2       C      0.875000000000     0.875000000000     0.776900000000     0          
C3       C      0.891450000000     0.891450000000     0.763450000000     0          
H1       H      0.902450000000     0.902450000000     0.772400000000     0          
Zn1      Zn     0.853300000000     0.646700000000     0.853300000000     0          
O2       O      0.859050000000     0.640950000000     0.817000000000     0          
C1       C      0.875000000000     0.625000000000     0.805650000000     0          
C2       C      0.875000000000     0.625000000000     0.776900000000     0          
C3       C      0.858550000000     0.641450000000     0.763450000000     0          
H1       H      0.847550000000     0.652450000000     0.772400000000     0          
O2       O      0.609050000000     0.609050000000     0.817000000000     0          
C1       C      0.625000000000     0.625000000000     0.805650000000     0          
C2       C      0.625000000000     0.625000000000     0.776900000000     0          
C3       C      0.608550000000     0.608550000000     0.763450000000     0          
H1       H      0.597550000000     0.597550000000     0.772400000000     0          
Zn1      Zn     0.646700000000     0.646700000000     0.646700000000     0          
O2       O      0.640950000000     0.640950000000     0.683000000000     0          
C1       C      0.625000000000     0.625000000000     0.694350000000     0          
C2       C      0.625000000000     0.625000000000     0.723100000000     0          
C3       C      0.641450000000     0.641450000000     0.736550000000     0          
H1       H      0.652450000000     0.652450000000     0.727600000000     0          
O2       O      0.609050000000     0.890950000000     0.683000000000     0          
C1       C      0.625000000000     0.875000000000     0.694350000000     0          
C2       C      0.625000000000     0.875000000000     0.723100000000     0          
C3       C      0.608550000000     0.891450000000     0.736550000000     0          
H1       H      0.597550000000     0.902450000000     0.727600000000     0          
Zn1      Zn     0.853300000000     0.853300000000     0.646700000000     0          
O2       O      0.859050000000     0.859050000000     0.683000000000     0          
C1       C      0.875000000000     0.875000000000     0.694350000000     0          
C2       C      0.875000000000     0.875000000000     0.723100000000     0          
C3       C      0.858550000000     0.858550000000     0.736550000000     0          
H1       H      0.847550000000     0.847550000000     0.727600000000     0          
O2       O      0.890950000000     0.609050000000     0.683000000000     0          
C1       C      0.875000000000     0.625000000000     0.694350000000     0          
C2       C      0.875000000000     0.625000000000     0.723100000000     0          
C3       C      0.891450000000     0.608550000000     0.736550000000     0          
H1       H      0.902450000000     0.597550000000     0.727600000000     0          
Zn1      Zn     0.853300000000     0.853300000000     0.853300000000     0          
O2       O      0.859050000000     0.817000000000     0.859050000000     0          
C1       C      0.875000000000     0.805650000000     0.875000000000     0          
C2       C      0.875000000000     0.776900000000     0.875000000000     0          
C3       C      0.858550000000     0.763450000000     0.858550000000     0          
H1       H      0.847550000000     0.772400000000     0.847550000000     0          
Zn1      Zn     0.646700000000     0.646700000000     0.853300000000     0          
O2       O      0.640950000000     0.683000000000     0.859050000000     0          
C1       C      0.625000000000     0.694350000000     0.875000000000     0          
C2       C      0.625000000000     0.723100000000     0.875000000000     0          
C3       C      0.641450000000     0.736550000000     0.858550000000     0          
H1       H      0.652450000000     0.727600000000     0.847550000000     0          
Zn1      Zn     0.646700000000     0.853300000000     0.646700000000     0          
O2       O      0.640950000000     0.817000000000     0.640950000000     0          
C1       C      0.625000000000     0.805650000000     0.625000000000     0          
C2       C      0.625000000000     0.776900000000     0.625000000000     0          
C3       C      0.641450000000     0.763450000000     0.641450000000     0          
H1       H      0.652450000000     0.772400000000     0.652450000000     0          
Zn1      Zn     0.853300000000     0.646700000000     0.646700000000     0          
O2       O      0.859050000000     0.683000000000     0.640950000000     0          
C1       C      0.875000000000     0.694350000000     0.625000000000     0          
C2       C      0.875000000000     0.723100000000     0.625000000000     0          
C3       C      0.858550000000     0.736550000000     0.641450000000     0          
H1       H      0.847550000000     0.727600000000     0.652450000000     0          
O2       O      0.609050000000     0.817000000000     0.890950000000     0          
C1       C      0.625000000000     0.805650000000     0.875000000000     0          
C2       C      0.625000000000     0.776900000000     0.875000000000     0          
C3       C      0.608550000000     0.763450000000     0.891450000000     0          
H1       H      0.597550000000     0.772400000000     0.902450000000     0          
O2       O      0.609050000000     0.683000000000     0.609050000000     0          
C1       C      0.625000000000     0.694350000000     0.625000000000     0          
C2       C      0.625000000000     0.723100000000     0.625000000000     0          
C3       C      0.608550000000     0.736550000000     0.608550000000     0          
H1       H      0.597550000000     0.727600000000     0.597550000000     0          
O2       O      0.890950000000     0.817000000000     0.609050000000     0          
C1       C      0.875000000000     0.805650000000     0.625000000000     0          
C2       C      0.875000000000     0.776900000000     0.625000000000     0          
C3       C      0.891450000000     0.763450000000     0.608550000000     0          
H1       H      0.902450000000     0.772400000000     0.597550000000     0          
O2       O      0.890950000000     0.683000000000     0.890950000000     0          
C1       C      0.875000000000     0.694350000000     0.875000000000     0          
C2       C      0.875000000000     0.723100000000     0.875000000000     0          
C3       C      0.891450000000     0.736550000000     0.891450000000     0          
H1       H      0.902450000000     0.727600000000     0.902450000000     0          
O2       O      0.859050000000     0.640950000000     0.683000000000     0          
C3       C      0.858550000000     0.641450000000     0.736550000000     0          
H1       H      0.847550000000     0.652450000000     0.727600000000     0          
O2       O      0.609050000000     0.609050000000     0.683000000000     0          
C3       C      0.608550000000     0.608550000000     0.736550000000     0          
H1       H      0.597550000000     0.597550000000     0.727600000000     0          
O2       O      0.640950000000     0.859050000000     0.683000000000     0          
C3       C      0.641450000000     0.858550000000     0.736550000000     0          
H1       H      0.652450000000     0.847550000000     0.727600000000     0          
O2       O      0.890950000000     0.890950000000     0.683000000000     0          
C3       C      0.891450000000     0.891450000000     0.736550000000     0          
H1       H      0.902450000000     0.902450000000     0.727600000000     0          
O2       O      0.859050000000     0.859050000000     0.817000000000     0          
C3       C      0.858550000000     0.858550000000     0.763450000000     0          
H1       H      0.847550000000     0.847550000000     0.772400000000     0          
O2       O      0.890950000000     0.609050000000     0.817000000000     0          
C3       C      0.891450000000     0.608550000000     0.763450000000     0          
H1       H      0.902450000000     0.597550000000     0.772400000000     0          
O2       O      0.640950000000     0.640950000000     0.817000000000     0          
C3       C      0.641450000000     0.641450000000     0.763450000000     0          
H1       H      0.652450000000     0.652450000000     0.772400000000     0          
O2       O      0.609050000000     0.890950000000     0.817000000000     0          
C3       C      0.608550000000     0.891450000000     0.763450000000     0          
H1       H      0.597550000000     0.902450000000     0.772400000000     0          
O2       O      0.640950000000     0.683000000000     0.640950000000     0          
C3       C      0.641450000000     0.736550000000     0.641450000000     0          
H1       H      0.652450000000     0.727600000000     0.652450000000     0          
O2       O      0.859050000000     0.817000000000     0.640950000000     0          
C3       C      0.858550000000     0.763450000000     0.641450000000     0          
H1       H      0.847550000000     0.772400000000     0.652450000000     0          
O2       O      0.859050000000     0.683000000000     0.859050000000     0          
C3       C      0.858550000000     0.736550000000     0.858550000000     0          
H1       H      0.847550000000     0.727600000000     0.847550000000     0          
O2       O      0.640950000000     0.817000000000     0.859050000000     0          
C3       C      0.641450000000     0.763450000000     0.858550000000     0          
H1       H      0.652450000000     0.772400000000     0.847550000000     0          
O2       O      0.890950000000     0.683000000000     0.609050000000     0          
C3       C      0.891450000000     0.736550000000     0.608550000000     0          
H1       H      0.902450000000     0.727600000000     0.597550000000     0          
O2       O      0.890950000000     0.817000000000     0.890950000000     0          
C3       C      0.891450000000     0.763450000000     0.891450000000     0          
H1       H      0.902450000000     0.772400000000     0.902450000000     0          
O2       O      0.609050000000     0.683000000000     0.890950000000     0          
C3       C      0.608550000000     0.736550000000     0.891450000000     0          
H1       H      0.597550000000     0.727600000000     0.902450000000     0          
O2       O      0.609050000000     0.817000000000     0.609050000000     0          
C3       C      0.608550000000     0.763450000000     0.608550000000     0          
H1       H      0.597550000000     0.772400000000     0.597550000000     0          
O2       O      0.817000000000     0.640950000000     0.859050000000     0          
C1       C      0.805650000000     0.625000000000     0.875000000000     0          
C2       C      0.776900000000     0.625000000000     0.875000000000     0          
C3       C      0.763450000000     0.641450000000     0.858550000000     0          
H1       H      0.772400000000     0.652450000000     0.847550000000     0          
O2       O      0.683000000000     0.859050000000     0.859050000000     0          
C1       C      0.694350000000     0.875000000000     0.875000000000     0          
C2       C      0.723100000000     0.875000000000     0.875000000000     0          
C3       C      0.736550000000     0.858550000000     0.858550000000     0          
H1       H      0.727600000000     0.847550000000     0.847550000000     0          
O2       O      0.817000000000     0.859050000000     0.640950000000     0          
C1       C      0.805650000000     0.875000000000     0.625000000000     0          
C2       C      0.776900000000     0.875000000000     0.625000000000     0          
C3       C      0.763450000000     0.858550000000     0.641450000000     0          
H1       H      0.772400000000     0.847550000000     0.652450000000     0          
O2       O      0.683000000000     0.640950000000     0.640950000000     0          
C1       C      0.694350000000     0.625000000000     0.625000000000     0          
C2       C      0.723100000000     0.625000000000     0.625000000000     0          
C3       C      0.736550000000     0.641450000000     0.641450000000     0          
H1       H      0.727600000000     0.652450000000     0.652450000000     0          
O2       O      0.817000000000     0.609050000000     0.609050000000     0          
C1       C      0.805650000000     0.625000000000     0.625000000000     0          
C2       C      0.776900000000     0.625000000000     0.625000000000     0          
C3       C      0.763450000000     0.608550000000     0.608550000000     0          
H1       H      0.772400000000     0.597550000000     0.597550000000     0          
O2       O      0.683000000000     0.890950000000     0.609050000000     0          
C1       C      0.694350000000     0.875000000000     0.625000000000     0          
C2       C      0.723100000000     0.875000000000     0.625000000000     0          
C3       C      0.736550000000     0.891450000000     0.608550000000     0          
H1       H      0.727600000000     0.902450000000     0.597550000000     0          
O2       O      0.817000000000     0.890950000000     0.890950000000     0          
C1       C      0.805650000000     0.875000000000     0.875000000000     0          
C2       C      0.776900000000     0.875000000000     0.875000000000     0          
C3       C      0.763450000000     0.891450000000     0.891450000000     0          
H1       H      0.772400000000     0.902450000000     0.902450000000     0          
O2       O      0.683000000000     0.609050000000     0.890950000000     0          
C1       C      0.694350000000     0.625000000000     0.875000000000     0          
C2       C      0.723100000000     0.625000000000     0.875000000000     0          
C3       C      0.736550000000     0.608550000000     0.891450000000     0          
H1       H      0.727600000000     0.597550000000     0.902450000000     0          
O2       O      0.683000000000     0.859050000000     0.640950000000     0          
C3       C      0.736550000000     0.858550000000     0.641450000000     0          
H1       H      0.727600000000     0.847550000000     0.652450000000     0          
O2       O      0.817000000000     0.640950000000     0.640950000000     0          
C3       C      0.763450000000     0.641450000000     0.641450000000     0          
H1       H      0.772400000000     0.652450000000     0.652450000000     0          
O2       O      0.683000000000     0.640950000000     0.859050000000     0          
C3       C      0.736550000000     0.641450000000     0.858550000000     0          
H1       H      0.727600000000     0.652450000000     0.847550000000     0          
O2       O      0.817000000000     0.859050000000     0.859050000000     0          
C3       C      0.763450000000     0.858550000000     0.858550000000     0          
H1       H      0.772400000000     0.847550000000     0.847550000000     0          
O2       O      0.683000000000     0.890950000000     0.890950000000     0          
C3       C      0.736550000000     0.891450000000     0.891450000000     0          
H1       H      0.727600000000     0.902450000000     0.902450000000     0          
O2       O      0.817000000000     0.609050000000     0.890950000000     0          
C3       C      0.763450000000     0.608550000000     0.891450000000     0          
H1       H      0.772400000000     0.597550000000     0.902450000000     0          
O2       O      0.683000000000     0.609050000000     0.609050000000     0          
C3       C      0.736550000000     0.608550000000     0.608550000000     0          
H1       H      0.727600000000     0.597550000000     0.597550000000     0          
O2       O      0.817000000000     0.890950000000     0.609050000000     0          
C3       C      0.763450000000     0.891450000000     0.608550000000     0          
H1       H      0.772400000000     0.902450000000     0.597550000000     0          


