data_UIO-66

_audit_creation_method RASPA-1.0
_audit_creation_date 2021-4-21
_audit_author_name 'hiuki'

_citation_author_name        'J.S. Cavka, S. Jakobsen, U. Olsbye, N. Guillou, C. Lamberti, S. Bordiga, and K.P. Lillerud'
_citation_title              'A new zirconium inorganic building brick forming metal organic frameworks with exceptional stability'
_citation_journal_abbrev     'J. Am. Chem. Soc.'
_citation_journal_volume     130
_citation_page_first         13850
_citation_page_last          13851
_citation_year               2008

_cell_length_a    41.4008
_cell_length_b    41.4008
_cell_length_c    41.4008
_cell_angle_alpha 90
_cell_angle_beta  90
_cell_angle_gamma 90
_cell_volume      70962.1

_symmetry_cell_setting          triclinic
_symmetry_space_group_name_Hall 'P 1'
_symmetry_space_group_name_H-M  'P 1'
_symmetry_Int_Tables_number     1

_symmetry_equiv_pos_as_xyz 'x,y,z'

loop_
_atom_site_label
_atom_site_type_symbol
_atom_site_fract_x
_atom_site_fract_y
_atom_site_fract_z
_atom_site_charge
Zr1      Zr     0.059945000000     0.000000000000     0.000000000000     0          
Zr1      Zr     0.059945000000     0.250000000000     0.250000000000     0          
Zr1      Zr     0.309945000000     0.000000000000     0.250000000000     0          
Zr1      Zr     0.309945000000     0.250000000000     0.000000000000     0          
Zr1      Zr     0.440055000000     0.000000000000     0.000000000000     0          
Zr1      Zr     0.440055000000     0.250000000000     0.250000000000     0          
Zr1      Zr     0.190055000000     0.000000000000     0.250000000000     0          
Zr1      Zr     0.190055000000     0.250000000000     0.000000000000     0          
Zr1      Zr     0.000000000000     0.059945000000     0.000000000000     0          
Zr1      Zr     0.000000000000     0.309945000000     0.250000000000     0          
Zr1      Zr     0.250000000000     0.059945000000     0.250000000000     0          
Zr1      Zr     0.250000000000     0.309945000000     0.000000000000     0          
Zr1      Zr     0.000000000000     0.440055000000     0.000000000000     0          
Zr1      Zr     0.000000000000     0.190055000000     0.250000000000     0          
Zr1      Zr     0.250000000000     0.440055000000     0.250000000000     0          
Zr1      Zr     0.250000000000     0.190055000000     0.000000000000     0          
Zr1      Zr     0.000000000000     0.000000000000     0.059945000000     0          
Zr1      Zr     0.000000000000     0.250000000000     0.309945000000     0          
Zr1      Zr     0.250000000000     0.000000000000     0.309945000000     0          
Zr1      Zr     0.250000000000     0.250000000000     0.059945000000     0          
Zr1      Zr     0.000000000000     0.000000000000     0.440055000000     0          
Zr1      Zr     0.000000000000     0.250000000000     0.190055000000     0          
Zr1      Zr     0.250000000000     0.000000000000     0.190055000000     0          
Zr1      Zr     0.250000000000     0.250000000000     0.440055000000     0          
O1       O      0.085235000000     0.000000000000     0.047650000000     0          
C3       C      0.133750000000     0.000000000000     0.092200000000     0          
H1       H      0.139360000000     0.000000000000     0.065240000000     0          
O1       O      0.085235000000     0.250000000000     0.297650000000     0          
C3       C      0.133750000000     0.250000000000     0.342200000000     0          
H1       H      0.139360000000     0.250000000000     0.315240000000     0          
O1       O      0.335235000000     0.000000000000     0.297650000000     0          
C3       C      0.383750000000     0.000000000000     0.342200000000     0          
H1       H      0.389360000000     0.000000000000     0.315240000000     0          
O1       O      0.335235000000     0.250000000000     0.047650000000     0          
C3       C      0.383750000000     0.250000000000     0.092200000000     0          
H1       H      0.389360000000     0.250000000000     0.065240000000     0          
O1       O      0.414765000000     0.000000000000     0.047650000000     0          
C3       C      0.366250000000     0.000000000000     0.092200000000     0          
H1       H      0.360640000000     0.000000000000     0.065240000000     0          
O1       O      0.414765000000     0.250000000000     0.297650000000     0          
C3       C      0.366250000000     0.250000000000     0.342200000000     0          
H1       H      0.360640000000     0.250000000000     0.315240000000     0          
O1       O      0.164765000000     0.000000000000     0.297650000000     0          
C3       C      0.116250000000     0.000000000000     0.342200000000     0          
H1       H      0.110640000000     0.000000000000     0.315240000000     0          
O1       O      0.164765000000     0.250000000000     0.047650000000     0          
C3       C      0.116250000000     0.250000000000     0.092200000000     0          
H1       H      0.110640000000     0.250000000000     0.065240000000     0          
O1       O      0.414765000000     0.000000000000     0.452350000000     0          
C3       C      0.366250000000     0.000000000000     0.407800000000     0          
H1       H      0.360640000000     0.000000000000     0.434760000000     0          
O1       O      0.414765000000     0.250000000000     0.202350000000     0          
C3       C      0.366250000000     0.250000000000     0.157800000000     0          
H1       H      0.360640000000     0.250000000000     0.184760000000     0          
O1       O      0.164765000000     0.000000000000     0.202350000000     0          
C3       C      0.116250000000     0.000000000000     0.157800000000     0          
H1       H      0.110640000000     0.000000000000     0.184760000000     0          
O1       O      0.164765000000     0.250000000000     0.452350000000     0          
C3       C      0.116250000000     0.250000000000     0.407800000000     0          
H1       H      0.110640000000     0.250000000000     0.434760000000     0          
O1       O      0.085235000000     0.000000000000     0.452350000000     0          
C3       C      0.133750000000     0.000000000000     0.407800000000     0          
H1       H      0.139360000000     0.000000000000     0.434760000000     0          
O1       O      0.085235000000     0.250000000000     0.202350000000     0          
C3       C      0.133750000000     0.250000000000     0.157800000000     0          
H1       H      0.139360000000     0.250000000000     0.184760000000     0          
O1       O      0.335235000000     0.000000000000     0.202350000000     0          
C3       C      0.383750000000     0.000000000000     0.157800000000     0          
H1       H      0.389360000000     0.000000000000     0.184760000000     0          
O1       O      0.335235000000     0.250000000000     0.452350000000     0          
C3       C      0.383750000000     0.250000000000     0.407800000000     0          
H1       H      0.389360000000     0.250000000000     0.434760000000     0          
O1       O      0.047650000000     0.085235000000     0.000000000000     0          
C3       C      0.092200000000     0.133750000000     0.000000000000     0          
H1       H      0.065240000000     0.139360000000     0.000000000000     0          
O1       O      0.047650000000     0.335235000000     0.250000000000     0          
C3       C      0.092200000000     0.383750000000     0.250000000000     0          
H1       H      0.065240000000     0.389360000000     0.250000000000     0          
O1       O      0.297650000000     0.085235000000     0.250000000000     0          
C3       C      0.342200000000     0.133750000000     0.250000000000     0          
H1       H      0.315240000000     0.139360000000     0.250000000000     0          
O1       O      0.297650000000     0.335235000000     0.000000000000     0          
C3       C      0.342200000000     0.383750000000     0.000000000000     0          
H1       H      0.315240000000     0.389360000000     0.000000000000     0          
O1       O      0.047650000000     0.414765000000     0.000000000000     0          
C3       C      0.092200000000     0.366250000000     0.000000000000     0          
H1       H      0.065240000000     0.360640000000     0.000000000000     0          
O1       O      0.047650000000     0.164765000000     0.250000000000     0          
C3       C      0.092200000000     0.116250000000     0.250000000000     0          
H1       H      0.065240000000     0.110640000000     0.250000000000     0          
O1       O      0.297650000000     0.414765000000     0.250000000000     0          
C3       C      0.342200000000     0.366250000000     0.250000000000     0          
H1       H      0.315240000000     0.360640000000     0.250000000000     0          
O1       O      0.297650000000     0.164765000000     0.000000000000     0          
C3       C      0.342200000000     0.116250000000     0.000000000000     0          
H1       H      0.315240000000     0.110640000000     0.000000000000     0          
O1       O      0.452350000000     0.414765000000     0.000000000000     0          
C3       C      0.407800000000     0.366250000000     0.000000000000     0          
H1       H      0.434760000000     0.360640000000     0.000000000000     0          
O1       O      0.452350000000     0.164765000000     0.250000000000     0          
C3       C      0.407800000000     0.116250000000     0.250000000000     0          
H1       H      0.434760000000     0.110640000000     0.250000000000     0          
O1       O      0.202350000000     0.414765000000     0.250000000000     0          
C3       C      0.157800000000     0.366250000000     0.250000000000     0          
H1       H      0.184760000000     0.360640000000     0.250000000000     0          
O1       O      0.202350000000     0.164765000000     0.000000000000     0          
C3       C      0.157800000000     0.116250000000     0.000000000000     0          
H1       H      0.184760000000     0.110640000000     0.000000000000     0          
O1       O      0.452350000000     0.085235000000     0.000000000000     0          
C3       C      0.407800000000     0.133750000000     0.000000000000     0          
H1       H      0.434760000000     0.139360000000     0.000000000000     0          
O1       O      0.452350000000     0.335235000000     0.250000000000     0          
C3       C      0.407800000000     0.383750000000     0.250000000000     0          
H1       H      0.434760000000     0.389360000000     0.250000000000     0          
O1       O      0.202350000000     0.085235000000     0.250000000000     0          
C3       C      0.157800000000     0.133750000000     0.250000000000     0          
H1       H      0.184760000000     0.139360000000     0.250000000000     0          
O1       O      0.202350000000     0.335235000000     0.000000000000     0          
C3       C      0.157800000000     0.383750000000     0.000000000000     0          
H1       H      0.184760000000     0.389360000000     0.000000000000     0          
O1       O      0.000000000000     0.047650000000     0.085235000000     0          
C3       C      0.000000000000     0.092200000000     0.133750000000     0          
H1       H      0.000000000000     0.065240000000     0.139360000000     0          
O1       O      0.000000000000     0.297650000000     0.335235000000     0          
C3       C      0.000000000000     0.342200000000     0.383750000000     0          
H1       H      0.000000000000     0.315240000000     0.389360000000     0          
O1       O      0.250000000000     0.047650000000     0.335235000000     0          
C3       C      0.250000000000     0.092200000000     0.383750000000     0          
H1       H      0.250000000000     0.065240000000     0.389360000000     0          
O1       O      0.250000000000     0.297650000000     0.085235000000     0          
C3       C      0.250000000000     0.342200000000     0.133750000000     0          
H1       H      0.250000000000     0.315240000000     0.139360000000     0          
O1       O      0.000000000000     0.047650000000     0.414765000000     0          
C3       C      0.000000000000     0.092200000000     0.366250000000     0          
H1       H      0.000000000000     0.065240000000     0.360640000000     0          
O1       O      0.000000000000     0.297650000000     0.164765000000     0          
C3       C      0.000000000000     0.342200000000     0.116250000000     0          
H1       H      0.000000000000     0.315240000000     0.110640000000     0          
O1       O      0.250000000000     0.047650000000     0.164765000000     0          
C3       C      0.250000000000     0.092200000000     0.116250000000     0          
H1       H      0.250000000000     0.065240000000     0.110640000000     0          
O1       O      0.250000000000     0.297650000000     0.414765000000     0          
C3       C      0.250000000000     0.342200000000     0.366250000000     0          
H1       H      0.250000000000     0.315240000000     0.360640000000     0          
O1       O      0.000000000000     0.452350000000     0.414765000000     0          
C3       C      0.000000000000     0.407800000000     0.366250000000     0          
H1       H      0.000000000000     0.434760000000     0.360640000000     0          
O1       O      0.000000000000     0.202350000000     0.164765000000     0          
C3       C      0.000000000000     0.157800000000     0.116250000000     0          
H1       H      0.000000000000     0.184760000000     0.110640000000     0          
O1       O      0.250000000000     0.452350000000     0.164765000000     0          
C3       C      0.250000000000     0.407800000000     0.116250000000     0          
H1       H      0.250000000000     0.434760000000     0.110640000000     0          
O1       O      0.250000000000     0.202350000000     0.414765000000     0          
C3       C      0.250000000000     0.157800000000     0.366250000000     0          
H1       H      0.250000000000     0.184760000000     0.360640000000     0          
O1       O      0.000000000000     0.452350000000     0.085235000000     0          
C3       C      0.000000000000     0.407800000000     0.133750000000     0          
H1       H      0.000000000000     0.434760000000     0.139360000000     0          
O1       O      0.000000000000     0.202350000000     0.335235000000     0          
C3       C      0.000000000000     0.157800000000     0.383750000000     0          
H1       H      0.000000000000     0.184760000000     0.389360000000     0          
O1       O      0.250000000000     0.452350000000     0.335235000000     0          
C3       C      0.250000000000     0.407800000000     0.383750000000     0          
H1       H      0.250000000000     0.434760000000     0.389360000000     0          
O1       O      0.250000000000     0.202350000000     0.085235000000     0          
C3       C      0.250000000000     0.157800000000     0.133750000000     0          
H1       H      0.250000000000     0.184760000000     0.139360000000     0          
O1       O      0.000000000000     0.085235000000     0.452350000000     0          
C3       C      0.000000000000     0.133750000000     0.407800000000     0          
H1       H      0.000000000000     0.139360000000     0.434760000000     0          
O1       O      0.000000000000     0.335235000000     0.202350000000     0          
C3       C      0.000000000000     0.383750000000     0.157800000000     0          
H1       H      0.000000000000     0.389360000000     0.184760000000     0          
O1       O      0.250000000000     0.085235000000     0.202350000000     0          
C3       C      0.250000000000     0.133750000000     0.157800000000     0          
H1       H      0.250000000000     0.139360000000     0.184760000000     0          
O1       O      0.250000000000     0.335235000000     0.452350000000     0          
C3       C      0.250000000000     0.383750000000     0.407800000000     0          
H1       H      0.250000000000     0.389360000000     0.434760000000     0          
O1       O      0.000000000000     0.414765000000     0.452350000000     0          
C3       C      0.000000000000     0.366250000000     0.407800000000     0          
H1       H      0.000000000000     0.360640000000     0.434760000000     0          
O1       O      0.000000000000     0.164765000000     0.202350000000     0          
C3       C      0.000000000000     0.116250000000     0.157800000000     0          
H1       H      0.000000000000     0.110640000000     0.184760000000     0          
O1       O      0.250000000000     0.414765000000     0.202350000000     0          
C3       C      0.250000000000     0.366250000000     0.157800000000     0          
H1       H      0.250000000000     0.360640000000     0.184760000000     0          
O1       O      0.250000000000     0.164765000000     0.452350000000     0          
C3       C      0.250000000000     0.116250000000     0.407800000000     0          
H1       H      0.250000000000     0.110640000000     0.434760000000     0          
O1       O      0.000000000000     0.414765000000     0.047650000000     0          
C3       C      0.000000000000     0.366250000000     0.092200000000     0          
H1       H      0.000000000000     0.360640000000     0.065240000000     0          
O1       O      0.000000000000     0.164765000000     0.297650000000     0          
C3       C      0.000000000000     0.116250000000     0.342200000000     0          
H1       H      0.000000000000     0.110640000000     0.315240000000     0          
O1       O      0.250000000000     0.414765000000     0.297650000000     0          
C3       C      0.250000000000     0.366250000000     0.342200000000     0          
H1       H      0.250000000000     0.360640000000     0.315240000000     0          
O1       O      0.250000000000     0.164765000000     0.047650000000     0          
C3       C      0.250000000000     0.116250000000     0.092200000000     0          
H1       H      0.250000000000     0.110640000000     0.065240000000     0          
O1       O      0.000000000000     0.085235000000     0.047650000000     0          
C3       C      0.000000000000     0.133750000000     0.092200000000     0          
H1       H      0.000000000000     0.139360000000     0.065240000000     0          
O1       O      0.000000000000     0.335235000000     0.297650000000     0          
C3       C      0.000000000000     0.383750000000     0.342200000000     0          
H1       H      0.000000000000     0.389360000000     0.315240000000     0          
O1       O      0.250000000000     0.085235000000     0.297650000000     0          
C3       C      0.250000000000     0.133750000000     0.342200000000     0          
H1       H      0.250000000000     0.139360000000     0.315240000000     0          
O1       O      0.250000000000     0.335235000000     0.047650000000     0          
C3       C      0.250000000000     0.383750000000     0.092200000000     0          
H1       H      0.250000000000     0.389360000000     0.065240000000     0          
O1       O      0.085235000000     0.047650000000     0.000000000000     0          
C3       C      0.133750000000     0.092200000000     0.000000000000     0          
H1       H      0.139360000000     0.065240000000     0.000000000000     0          
O1       O      0.085235000000     0.297650000000     0.250000000000     0          
C3       C      0.133750000000     0.342200000000     0.250000000000     0          
H1       H      0.139360000000     0.315240000000     0.250000000000     0          
O1       O      0.335235000000     0.047650000000     0.250000000000     0          
C3       C      0.383750000000     0.092200000000     0.250000000000     0          
H1       H      0.389360000000     0.065240000000     0.250000000000     0          
O1       O      0.335235000000     0.297650000000     0.000000000000     0          
C3       C      0.383750000000     0.342200000000     0.000000000000     0          
H1       H      0.389360000000     0.315240000000     0.000000000000     0          
O1       O      0.414765000000     0.047650000000     0.000000000000     0          
C3       C      0.366250000000     0.092200000000     0.000000000000     0          
H1       H      0.360640000000     0.065240000000     0.000000000000     0          
O1       O      0.414765000000     0.297650000000     0.250000000000     0          
C3       C      0.366250000000     0.342200000000     0.250000000000     0          
H1       H      0.360640000000     0.315240000000     0.250000000000     0          
O1       O      0.164765000000     0.047650000000     0.250000000000     0          
C3       C      0.116250000000     0.092200000000     0.250000000000     0          
H1       H      0.110640000000     0.065240000000     0.250000000000     0          
O1       O      0.164765000000     0.297650000000     0.000000000000     0          
C3       C      0.116250000000     0.342200000000     0.000000000000     0          
H1       H      0.110640000000     0.315240000000     0.000000000000     0          
O1       O      0.414765000000     0.452350000000     0.000000000000     0          
C3       C      0.366250000000     0.407800000000     0.000000000000     0          
H1       H      0.360640000000     0.434760000000     0.000000000000     0          
O1       O      0.414765000000     0.202350000000     0.250000000000     0          
C3       C      0.366250000000     0.157800000000     0.250000000000     0          
H1       H      0.360640000000     0.184760000000     0.250000000000     0          
O1       O      0.164765000000     0.452350000000     0.250000000000     0          
C3       C      0.116250000000     0.407800000000     0.250000000000     0          
H1       H      0.110640000000     0.434760000000     0.250000000000     0          
O1       O      0.164765000000     0.202350000000     0.000000000000     0          
C3       C      0.116250000000     0.157800000000     0.000000000000     0          
H1       H      0.110640000000     0.184760000000     0.000000000000     0          
O1       O      0.085235000000     0.452350000000     0.000000000000     0          
C3       C      0.133750000000     0.407800000000     0.000000000000     0          
H1       H      0.139360000000     0.434760000000     0.000000000000     0          
O1       O      0.085235000000     0.202350000000     0.250000000000     0          
C3       C      0.133750000000     0.157800000000     0.250000000000     0          
H1       H      0.139360000000     0.184760000000     0.250000000000     0          
O1       O      0.335235000000     0.452350000000     0.250000000000     0          
C3       C      0.383750000000     0.407800000000     0.250000000000     0          
H1       H      0.389360000000     0.434760000000     0.250000000000     0          
O1       O      0.335235000000     0.202350000000     0.000000000000     0          
C3       C      0.383750000000     0.157800000000     0.000000000000     0          
H1       H      0.389360000000     0.184760000000     0.000000000000     0          
O1       O      0.047650000000     0.000000000000     0.414765000000     0          
C3       C      0.092200000000     0.000000000000     0.366250000000     0          
H1       H      0.065240000000     0.000000000000     0.360640000000     0          
O1       O      0.047650000000     0.250000000000     0.164765000000     0          
C3       C      0.092200000000     0.250000000000     0.116250000000     0          
H1       H      0.065240000000     0.250000000000     0.110640000000     0          
O1       O      0.297650000000     0.000000000000     0.164765000000     0          
C3       C      0.342200000000     0.000000000000     0.116250000000     0          
H1       H      0.315240000000     0.000000000000     0.110640000000     0          
O1       O      0.297650000000     0.250000000000     0.414765000000     0          
C3       C      0.342200000000     0.250000000000     0.366250000000     0          
H1       H      0.315240000000     0.250000000000     0.360640000000     0          
O1       O      0.047650000000     0.000000000000     0.085235000000     0          
C3       C      0.092200000000     0.000000000000     0.133750000000     0          
H1       H      0.065240000000     0.000000000000     0.139360000000     0          
O1       O      0.047650000000     0.250000000000     0.335235000000     0          
C3       C      0.092200000000     0.250000000000     0.383750000000     0          
H1       H      0.065240000000     0.250000000000     0.389360000000     0          
O1       O      0.297650000000     0.000000000000     0.335235000000     0          
C3       C      0.342200000000     0.000000000000     0.383750000000     0          
H1       H      0.315240000000     0.000000000000     0.389360000000     0          
O1       O      0.297650000000     0.250000000000     0.085235000000     0          
C3       C      0.342200000000     0.250000000000     0.133750000000     0          
H1       H      0.315240000000     0.250000000000     0.139360000000     0          
O1       O      0.452350000000     0.000000000000     0.085235000000     0          
C3       C      0.407800000000     0.000000000000     0.133750000000     0          
H1       H      0.434760000000     0.000000000000     0.139360000000     0          
O1       O      0.452350000000     0.250000000000     0.335235000000     0          
C3       C      0.407800000000     0.250000000000     0.383750000000     0          
H1       H      0.434760000000     0.250000000000     0.389360000000     0          
O1       O      0.202350000000     0.000000000000     0.335235000000     0          
C3       C      0.157800000000     0.000000000000     0.383750000000     0          
H1       H      0.184760000000     0.000000000000     0.389360000000     0          
O1       O      0.202350000000     0.250000000000     0.085235000000     0          
C3       C      0.157800000000     0.250000000000     0.133750000000     0          
H1       H      0.184760000000     0.250000000000     0.139360000000     0          
O1       O      0.452350000000     0.000000000000     0.414765000000     0          
C3       C      0.407800000000     0.000000000000     0.366250000000     0          
H1       H      0.434760000000     0.000000000000     0.360640000000     0          
O1       O      0.452350000000     0.250000000000     0.164765000000     0          
C3       C      0.407800000000     0.250000000000     0.116250000000     0          
H1       H      0.434760000000     0.250000000000     0.110640000000     0          
O1       O      0.202350000000     0.000000000000     0.164765000000     0          
C3       C      0.157800000000     0.000000000000     0.116250000000     0          
H1       H      0.184760000000     0.000000000000     0.110640000000     0          
O1       O      0.202350000000     0.250000000000     0.414765000000     0          
C3       C      0.157800000000     0.250000000000     0.366250000000     0          
H1       H      0.184760000000     0.250000000000     0.360640000000     0          
O2       O      0.028050000000     0.221950000000     0.221950000000     0          
O2       O      0.278050000000     0.471950000000     0.221950000000     0          
O2       O      0.278050000000     0.221950000000     0.471950000000     0          
O2       O      0.221950000000     0.028050000000     0.221950000000     0          
O2       O      0.221950000000     0.278050000000     0.471950000000     0          
O2       O      0.471950000000     0.471950000000     0.028050000000     0          
O2       O      0.471950000000     0.221950000000     0.278050000000     0          
O2       O      0.028050000000     0.028050000000     0.028050000000     0          
O2       O      0.278050000000     0.278050000000     0.028050000000     0          
O2       O      0.471950000000     0.028050000000     0.028050000000     0          
O2       O      0.471950000000     0.278050000000     0.278050000000     0          
O2       O      0.221950000000     0.028050000000     0.278050000000     0          
O2       O      0.221950000000     0.278050000000     0.028050000000     0          
O2       O      0.028050000000     0.471950000000     0.028050000000     0          
O2       O      0.028050000000     0.221950000000     0.278050000000     0          
O2       O      0.278050000000     0.471950000000     0.278050000000     0          
O2       O      0.278050000000     0.221950000000     0.028050000000     0          
O2       O      0.471950000000     0.471950000000     0.471950000000     0          
O2       O      0.471950000000     0.221950000000     0.221950000000     0          
O2       O      0.221950000000     0.471950000000     0.221950000000     0          
O2       O      0.221950000000     0.221950000000     0.471950000000     0          
O2       O      0.028050000000     0.028050000000     0.471950000000     0          
O2       O      0.028050000000     0.278050000000     0.221950000000     0          
O2       O      0.278050000000     0.028050000000     0.221950000000     0          
C1       C      0.076800000000     0.000000000000     0.423200000000     0          
C1       C      0.076800000000     0.250000000000     0.173200000000     0          
C1       C      0.326800000000     0.000000000000     0.173200000000     0          
C1       C      0.326800000000     0.250000000000     0.423200000000     0          
C1       C      0.423200000000     0.000000000000     0.423200000000     0          
C1       C      0.423200000000     0.250000000000     0.173200000000     0          
C1       C      0.173200000000     0.000000000000     0.173200000000     0          
C1       C      0.173200000000     0.250000000000     0.423200000000     0          
C1       C      0.423200000000     0.000000000000     0.076800000000     0          
C1       C      0.423200000000     0.250000000000     0.326800000000     0          
C1       C      0.173200000000     0.000000000000     0.326800000000     0          
C1       C      0.173200000000     0.250000000000     0.076800000000     0          
C1       C      0.076800000000     0.000000000000     0.076800000000     0          
C1       C      0.076800000000     0.250000000000     0.326800000000     0          
C1       C      0.326800000000     0.000000000000     0.326800000000     0          
C1       C      0.326800000000     0.250000000000     0.076800000000     0          
C1       C      0.423200000000     0.076800000000     0.000000000000     0          
C1       C      0.423200000000     0.326800000000     0.250000000000     0          
C1       C      0.173200000000     0.076800000000     0.250000000000     0          
C1       C      0.173200000000     0.326800000000     0.000000000000     0          
C1       C      0.423200000000     0.423200000000     0.000000000000     0          
C1       C      0.423200000000     0.173200000000     0.250000000000     0          
C1       C      0.173200000000     0.423200000000     0.250000000000     0          
C1       C      0.173200000000     0.173200000000     0.000000000000     0          
C1       C      0.076800000000     0.423200000000     0.000000000000     0          
C1       C      0.076800000000     0.173200000000     0.250000000000     0          
C1       C      0.326800000000     0.423200000000     0.250000000000     0          
C1       C      0.326800000000     0.173200000000     0.000000000000     0          
C1       C      0.076800000000     0.076800000000     0.000000000000     0          
C1       C      0.076800000000     0.326800000000     0.250000000000     0          
C1       C      0.326800000000     0.076800000000     0.250000000000     0          
C1       C      0.326800000000     0.326800000000     0.000000000000     0          
C1       C      0.000000000000     0.423200000000     0.076800000000     0          
C1       C      0.000000000000     0.173200000000     0.326800000000     0          
C1       C      0.250000000000     0.423200000000     0.326800000000     0          
C1       C      0.250000000000     0.173200000000     0.076800000000     0          
C1       C      0.000000000000     0.423200000000     0.423200000000     0          
C1       C      0.000000000000     0.173200000000     0.173200000000     0          
C1       C      0.250000000000     0.423200000000     0.173200000000     0          
C1       C      0.250000000000     0.173200000000     0.423200000000     0          
C1       C      0.000000000000     0.076800000000     0.423200000000     0          
C1       C      0.000000000000     0.326800000000     0.173200000000     0          
C1       C      0.250000000000     0.076800000000     0.173200000000     0          
C1       C      0.250000000000     0.326800000000     0.423200000000     0          
C1       C      0.000000000000     0.076800000000     0.076800000000     0          
C1       C      0.000000000000     0.326800000000     0.326800000000     0          
C1       C      0.250000000000     0.076800000000     0.326800000000     0          
C1       C      0.250000000000     0.326800000000     0.076800000000     0          
C2       C      0.102500000000     0.000000000000     0.102500000000     0          
C2       C      0.102500000000     0.250000000000     0.352500000000     0          
C2       C      0.352500000000     0.000000000000     0.352500000000     0          
C2       C      0.352500000000     0.250000000000     0.102500000000     0          
C2       C      0.397500000000     0.000000000000     0.102500000000     0          
C2       C      0.397500000000     0.250000000000     0.352500000000     0          
C2       C      0.147500000000     0.000000000000     0.352500000000     0          
C2       C      0.147500000000     0.250000000000     0.102500000000     0          
C2       C      0.397500000000     0.000000000000     0.397500000000     0          
C2       C      0.397500000000     0.250000000000     0.147500000000     0          
C2       C      0.147500000000     0.000000000000     0.147500000000     0          
C2       C      0.147500000000     0.250000000000     0.397500000000     0          
C2       C      0.102500000000     0.000000000000     0.397500000000     0          
C2       C      0.102500000000     0.250000000000     0.147500000000     0          
C2       C      0.352500000000     0.000000000000     0.147500000000     0          
C2       C      0.352500000000     0.250000000000     0.397500000000     0          
C2       C      0.102500000000     0.102500000000     0.000000000000     0          
C2       C      0.102500000000     0.352500000000     0.250000000000     0          
C2       C      0.352500000000     0.102500000000     0.250000000000     0          
C2       C      0.352500000000     0.352500000000     0.000000000000     0          
C2       C      0.102500000000     0.397500000000     0.000000000000     0          
C2       C      0.102500000000     0.147500000000     0.250000000000     0          
C2       C      0.352500000000     0.397500000000     0.250000000000     0          
C2       C      0.352500000000     0.147500000000     0.000000000000     0          
C2       C      0.397500000000     0.397500000000     0.000000000000     0          
C2       C      0.397500000000     0.147500000000     0.250000000000     0          
C2       C      0.147500000000     0.397500000000     0.250000000000     0          
C2       C      0.147500000000     0.147500000000     0.000000000000     0          
C2       C      0.397500000000     0.102500000000     0.000000000000     0          
C2       C      0.397500000000     0.352500000000     0.250000000000     0          
C2       C      0.147500000000     0.102500000000     0.250000000000     0          
C2       C      0.147500000000     0.352500000000     0.000000000000     0          
C2       C      0.000000000000     0.102500000000     0.102500000000     0          
C2       C      0.000000000000     0.352500000000     0.352500000000     0          
C2       C      0.250000000000     0.102500000000     0.352500000000     0          
C2       C      0.250000000000     0.352500000000     0.102500000000     0          
C2       C      0.000000000000     0.102500000000     0.397500000000     0          
C2       C      0.000000000000     0.352500000000     0.147500000000     0          
C2       C      0.250000000000     0.102500000000     0.147500000000     0          
C2       C      0.250000000000     0.352500000000     0.397500000000     0          
C2       C      0.000000000000     0.397500000000     0.397500000000     0          
C2       C      0.000000000000     0.147500000000     0.147500000000     0          
C2       C      0.250000000000     0.397500000000     0.147500000000     0          
C2       C      0.250000000000     0.147500000000     0.397500000000     0          
C2       C      0.000000000000     0.397500000000     0.102500000000     0          
C2       C      0.000000000000     0.147500000000     0.352500000000     0          
C2       C      0.250000000000     0.397500000000     0.352500000000     0          
C2       C      0.250000000000     0.147500000000     0.102500000000     0          
Zr1      Zr     0.059945000000     0.000000000000     0.500000000000     0          
Zr1      Zr     0.059945000000     0.250000000000     0.750000000000     0          
Zr1      Zr     0.309945000000     0.000000000000     0.750000000000     0          
Zr1      Zr     0.309945000000     0.250000000000     0.500000000000     0          
Zr1      Zr     0.440055000000     0.000000000000     0.500000000000     0          
Zr1      Zr     0.440055000000     0.250000000000     0.750000000000     0          
Zr1      Zr     0.190055000000     0.000000000000     0.750000000000     0          
Zr1      Zr     0.190055000000     0.250000000000     0.500000000000     0          
Zr1      Zr     0.000000000000     0.059945000000     0.500000000000     0          
Zr1      Zr     0.000000000000     0.309945000000     0.750000000000     0          
Zr1      Zr     0.250000000000     0.059945000000     0.750000000000     0          
Zr1      Zr     0.250000000000     0.309945000000     0.500000000000     0          
Zr1      Zr     0.000000000000     0.440055000000     0.500000000000     0          
Zr1      Zr     0.000000000000     0.190055000000     0.750000000000     0          
Zr1      Zr     0.250000000000     0.440055000000     0.750000000000     0          
Zr1      Zr     0.250000000000     0.190055000000     0.500000000000     0          
Zr1      Zr     0.000000000000     0.000000000000     0.559945000000     0          
Zr1      Zr     0.000000000000     0.250000000000     0.809945000000     0          
Zr1      Zr     0.250000000000     0.000000000000     0.809945000000     0          
Zr1      Zr     0.250000000000     0.250000000000     0.559945000000     0          
Zr1      Zr     0.000000000000     0.000000000000     0.940055000000     0          
Zr1      Zr     0.000000000000     0.250000000000     0.690055000000     0          
Zr1      Zr     0.250000000000     0.000000000000     0.690055000000     0          
Zr1      Zr     0.250000000000     0.250000000000     0.940055000000     0          
O1       O      0.085235000000     0.000000000000     0.547650000000     0          
C3       C      0.133750000000     0.000000000000     0.592200000000     0          
H1       H      0.139360000000     0.000000000000     0.565240000000     0          
O1       O      0.085235000000     0.250000000000     0.797650000000     0          
C3       C      0.133750000000     0.250000000000     0.842200000000     0          
H1       H      0.139360000000     0.250000000000     0.815240000000     0          
O1       O      0.335235000000     0.000000000000     0.797650000000     0          
C3       C      0.383750000000     0.000000000000     0.842200000000     0          
H1       H      0.389360000000     0.000000000000     0.815240000000     0          
O1       O      0.335235000000     0.250000000000     0.547650000000     0          
C3       C      0.383750000000     0.250000000000     0.592200000000     0          
H1       H      0.389360000000     0.250000000000     0.565240000000     0          
O1       O      0.414765000000     0.000000000000     0.547650000000     0          
C3       C      0.366250000000     0.000000000000     0.592200000000     0          
H1       H      0.360640000000     0.000000000000     0.565240000000     0          
O1       O      0.414765000000     0.250000000000     0.797650000000     0          
C3       C      0.366250000000     0.250000000000     0.842200000000     0          
H1       H      0.360640000000     0.250000000000     0.815240000000     0          
O1       O      0.164765000000     0.000000000000     0.797650000000     0          
C3       C      0.116250000000     0.000000000000     0.842200000000     0          
H1       H      0.110640000000     0.000000000000     0.815240000000     0          
O1       O      0.164765000000     0.250000000000     0.547650000000     0          
C3       C      0.116250000000     0.250000000000     0.592200000000     0          
H1       H      0.110640000000     0.250000000000     0.565240000000     0          
O1       O      0.414765000000     0.000000000000     0.952350000000     0          
C3       C      0.366250000000     0.000000000000     0.907800000000     0          
H1       H      0.360640000000     0.000000000000     0.934760000000     0          
O1       O      0.414765000000     0.250000000000     0.702350000000     0          
C3       C      0.366250000000     0.250000000000     0.657800000000     0          
H1       H      0.360640000000     0.250000000000     0.684760000000     0          
O1       O      0.164765000000     0.000000000000     0.702350000000     0          
C3       C      0.116250000000     0.000000000000     0.657800000000     0          
H1       H      0.110640000000     0.000000000000     0.684760000000     0          
O1       O      0.164765000000     0.250000000000     0.952350000000     0          
C3       C      0.116250000000     0.250000000000     0.907800000000     0          
H1       H      0.110640000000     0.250000000000     0.934760000000     0          
O1       O      0.085235000000     0.000000000000     0.952350000000     0          
C3       C      0.133750000000     0.000000000000     0.907800000000     0          
H1       H      0.139360000000     0.000000000000     0.934760000000     0          
O1       O      0.085235000000     0.250000000000     0.702350000000     0          
C3       C      0.133750000000     0.250000000000     0.657800000000     0          
H1       H      0.139360000000     0.250000000000     0.684760000000     0          
O1       O      0.335235000000     0.000000000000     0.702350000000     0          
C3       C      0.383750000000     0.000000000000     0.657800000000     0          
H1       H      0.389360000000     0.000000000000     0.684760000000     0          
O1       O      0.335235000000     0.250000000000     0.952350000000     0          
C3       C      0.383750000000     0.250000000000     0.907800000000     0          
H1       H      0.389360000000     0.250000000000     0.934760000000     0          
O1       O      0.047650000000     0.085235000000     0.500000000000     0          
C3       C      0.092200000000     0.133750000000     0.500000000000     0          
H1       H      0.065240000000     0.139360000000     0.500000000000     0          
O1       O      0.047650000000     0.335235000000     0.750000000000     0          
C3       C      0.092200000000     0.383750000000     0.750000000000     0          
H1       H      0.065240000000     0.389360000000     0.750000000000     0          
O1       O      0.297650000000     0.085235000000     0.750000000000     0          
C3       C      0.342200000000     0.133750000000     0.750000000000     0          
H1       H      0.315240000000     0.139360000000     0.750000000000     0          
O1       O      0.297650000000     0.335235000000     0.500000000000     0          
C3       C      0.342200000000     0.383750000000     0.500000000000     0          
H1       H      0.315240000000     0.389360000000     0.500000000000     0          
O1       O      0.047650000000     0.414765000000     0.500000000000     0          
C3       C      0.092200000000     0.366250000000     0.500000000000     0          
H1       H      0.065240000000     0.360640000000     0.500000000000     0          
O1       O      0.047650000000     0.164765000000     0.750000000000     0          
C3       C      0.092200000000     0.116250000000     0.750000000000     0          
H1       H      0.065240000000     0.110640000000     0.750000000000     0          
O1       O      0.297650000000     0.414765000000     0.750000000000     0          
C3       C      0.342200000000     0.366250000000     0.750000000000     0          
H1       H      0.315240000000     0.360640000000     0.750000000000     0          
O1       O      0.297650000000     0.164765000000     0.500000000000     0          
C3       C      0.342200000000     0.116250000000     0.500000000000     0          
H1       H      0.315240000000     0.110640000000     0.500000000000     0          
O1       O      0.452350000000     0.414765000000     0.500000000000     0          
C3       C      0.407800000000     0.366250000000     0.500000000000     0          
H1       H      0.434760000000     0.360640000000     0.500000000000     0          
O1       O      0.452350000000     0.164765000000     0.750000000000     0          
C3       C      0.407800000000     0.116250000000     0.750000000000     0          
H1       H      0.434760000000     0.110640000000     0.750000000000     0          
O1       O      0.202350000000     0.414765000000     0.750000000000     0          
C3       C      0.157800000000     0.366250000000     0.750000000000     0          
H1       H      0.184760000000     0.360640000000     0.750000000000     0          
O1       O      0.202350000000     0.164765000000     0.500000000000     0          
C3       C      0.157800000000     0.116250000000     0.500000000000     0          
H1       H      0.184760000000     0.110640000000     0.500000000000     0          
O1       O      0.452350000000     0.085235000000     0.500000000000     0          
C3       C      0.407800000000     0.133750000000     0.500000000000     0          
H1       H      0.434760000000     0.139360000000     0.500000000000     0          
O1       O      0.452350000000     0.335235000000     0.750000000000     0          
C3       C      0.407800000000     0.383750000000     0.750000000000     0          
H1       H      0.434760000000     0.389360000000     0.750000000000     0          
O1       O      0.202350000000     0.085235000000     0.750000000000     0          
C3       C      0.157800000000     0.133750000000     0.750000000000     0          
H1       H      0.184760000000     0.139360000000     0.750000000000     0          
O1       O      0.202350000000     0.335235000000     0.500000000000     0          
C3       C      0.157800000000     0.383750000000     0.500000000000     0          
H1       H      0.184760000000     0.389360000000     0.500000000000     0          
O1       O      0.000000000000     0.047650000000     0.585235000000     0          
C3       C      0.000000000000     0.092200000000     0.633750000000     0          
H1       H      0.000000000000     0.065240000000     0.639360000000     0          
O1       O      0.000000000000     0.297650000000     0.835235000000     0          
C3       C      0.000000000000     0.342200000000     0.883750000000     0          
H1       H      0.000000000000     0.315240000000     0.889360000000     0          
O1       O      0.250000000000     0.047650000000     0.835235000000     0          
C3       C      0.250000000000     0.092200000000     0.883750000000     0          
H1       H      0.250000000000     0.065240000000     0.889360000000     0          
O1       O      0.250000000000     0.297650000000     0.585235000000     0          
C3       C      0.250000000000     0.342200000000     0.633750000000     0          
H1       H      0.250000000000     0.315240000000     0.639360000000     0          
O1       O      0.000000000000     0.047650000000     0.914765000000     0          
C3       C      0.000000000000     0.092200000000     0.866250000000     0          
H1       H      0.000000000000     0.065240000000     0.860640000000     0          
O1       O      0.000000000000     0.297650000000     0.664765000000     0          
C3       C      0.000000000000     0.342200000000     0.616250000000     0          
H1       H      0.000000000000     0.315240000000     0.610640000000     0          
O1       O      0.250000000000     0.047650000000     0.664765000000     0          
C3       C      0.250000000000     0.092200000000     0.616250000000     0          
H1       H      0.250000000000     0.065240000000     0.610640000000     0          
O1       O      0.250000000000     0.297650000000     0.914765000000     0          
C3       C      0.250000000000     0.342200000000     0.866250000000     0          
H1       H      0.250000000000     0.315240000000     0.860640000000     0          
O1       O      0.000000000000     0.452350000000     0.914765000000     0          
C3       C      0.000000000000     0.407800000000     0.866250000000     0          
H1       H      0.000000000000     0.434760000000     0.860640000000     0          
O1       O      0.000000000000     0.202350000000     0.664765000000     0          
C3       C      0.000000000000     0.157800000000     0.616250000000     0          
H1       H      0.000000000000     0.184760000000     0.610640000000     0          
O1       O      0.250000000000     0.452350000000     0.664765000000     0          
C3       C      0.250000000000     0.407800000000     0.616250000000     0          
H1       H      0.250000000000     0.434760000000     0.610640000000     0          
O1       O      0.250000000000     0.202350000000     0.914765000000     0          
C3       C      0.250000000000     0.157800000000     0.866250000000     0          
H1       H      0.250000000000     0.184760000000     0.860640000000     0          
O1       O      0.000000000000     0.452350000000     0.585235000000     0          
C3       C      0.000000000000     0.407800000000     0.633750000000     0          
H1       H      0.000000000000     0.434760000000     0.639360000000     0          
O1       O      0.000000000000     0.202350000000     0.835235000000     0          
C3       C      0.000000000000     0.157800000000     0.883750000000     0          
H1       H      0.000000000000     0.184760000000     0.889360000000     0          
O1       O      0.250000000000     0.452350000000     0.835235000000     0          
C3       C      0.250000000000     0.407800000000     0.883750000000     0          
H1       H      0.250000000000     0.434760000000     0.889360000000     0          
O1       O      0.250000000000     0.202350000000     0.585235000000     0          
C3       C      0.250000000000     0.157800000000     0.633750000000     0          
H1       H      0.250000000000     0.184760000000     0.639360000000     0          
O1       O      0.000000000000     0.085235000000     0.952350000000     0          
C3       C      0.000000000000     0.133750000000     0.907800000000     0          
H1       H      0.000000000000     0.139360000000     0.934760000000     0          
O1       O      0.000000000000     0.335235000000     0.702350000000     0          
C3       C      0.000000000000     0.383750000000     0.657800000000     0          
H1       H      0.000000000000     0.389360000000     0.684760000000     0          
O1       O      0.250000000000     0.085235000000     0.702350000000     0          
C3       C      0.250000000000     0.133750000000     0.657800000000     0          
H1       H      0.250000000000     0.139360000000     0.684760000000     0          
O1       O      0.250000000000     0.335235000000     0.952350000000     0          
C3       C      0.250000000000     0.383750000000     0.907800000000     0          
H1       H      0.250000000000     0.389360000000     0.934760000000     0          
O1       O      0.000000000000     0.414765000000     0.952350000000     0          
C3       C      0.000000000000     0.366250000000     0.907800000000     0          
H1       H      0.000000000000     0.360640000000     0.934760000000     0          
O1       O      0.000000000000     0.164765000000     0.702350000000     0          
C3       C      0.000000000000     0.116250000000     0.657800000000     0          
H1       H      0.000000000000     0.110640000000     0.684760000000     0          
O1       O      0.250000000000     0.414765000000     0.702350000000     0          
C3       C      0.250000000000     0.366250000000     0.657800000000     0          
H1       H      0.250000000000     0.360640000000     0.684760000000     0          
O1       O      0.250000000000     0.164765000000     0.952350000000     0          
C3       C      0.250000000000     0.116250000000     0.907800000000     0          
H1       H      0.250000000000     0.110640000000     0.934760000000     0          
O1       O      0.000000000000     0.414765000000     0.547650000000     0          
C3       C      0.000000000000     0.366250000000     0.592200000000     0          
H1       H      0.000000000000     0.360640000000     0.565240000000     0          
O1       O      0.000000000000     0.164765000000     0.797650000000     0          
C3       C      0.000000000000     0.116250000000     0.842200000000     0          
H1       H      0.000000000000     0.110640000000     0.815240000000     0          
O1       O      0.250000000000     0.414765000000     0.797650000000     0          
C3       C      0.250000000000     0.366250000000     0.842200000000     0          
H1       H      0.250000000000     0.360640000000     0.815240000000     0          
O1       O      0.250000000000     0.164765000000     0.547650000000     0          
C3       C      0.250000000000     0.116250000000     0.592200000000     0          
H1       H      0.250000000000     0.110640000000     0.565240000000     0          
O1       O      0.000000000000     0.085235000000     0.547650000000     0          
C3       C      0.000000000000     0.133750000000     0.592200000000     0          
H1       H      0.000000000000     0.139360000000     0.565240000000     0          
O1       O      0.000000000000     0.335235000000     0.797650000000     0          
C3       C      0.000000000000     0.383750000000     0.842200000000     0          
H1       H      0.000000000000     0.389360000000     0.815240000000     0          
O1       O      0.250000000000     0.085235000000     0.797650000000     0          
C3       C      0.250000000000     0.133750000000     0.842200000000     0          
H1       H      0.250000000000     0.139360000000     0.815240000000     0          
O1       O      0.250000000000     0.335235000000     0.547650000000     0          
C3       C      0.250000000000     0.383750000000     0.592200000000     0          
H1       H      0.250000000000     0.389360000000     0.565240000000     0          
O1       O      0.085235000000     0.047650000000     0.500000000000     0          
C3       C      0.133750000000     0.092200000000     0.500000000000     0          
H1       H      0.139360000000     0.065240000000     0.500000000000     0          
O1       O      0.085235000000     0.297650000000     0.750000000000     0          
C3       C      0.133750000000     0.342200000000     0.750000000000     0          
H1       H      0.139360000000     0.315240000000     0.750000000000     0          
O1       O      0.335235000000     0.047650000000     0.750000000000     0          
C3       C      0.383750000000     0.092200000000     0.750000000000     0          
H1       H      0.389360000000     0.065240000000     0.750000000000     0          
O1       O      0.335235000000     0.297650000000     0.500000000000     0          
C3       C      0.383750000000     0.342200000000     0.500000000000     0          
H1       H      0.389360000000     0.315240000000     0.500000000000     0          
O1       O      0.414765000000     0.047650000000     0.500000000000     0          
C3       C      0.366250000000     0.092200000000     0.500000000000     0          
H1       H      0.360640000000     0.065240000000     0.500000000000     0          
O1       O      0.414765000000     0.297650000000     0.750000000000     0          
C3       C      0.366250000000     0.342200000000     0.750000000000     0          
H1       H      0.360640000000     0.315240000000     0.750000000000     0          
O1       O      0.164765000000     0.047650000000     0.750000000000     0          
C3       C      0.116250000000     0.092200000000     0.750000000000     0          
H1       H      0.110640000000     0.065240000000     0.750000000000     0          
O1       O      0.164765000000     0.297650000000     0.500000000000     0          
C3       C      0.116250000000     0.342200000000     0.500000000000     0          
H1       H      0.110640000000     0.315240000000     0.500000000000     0          
O1       O      0.414765000000     0.452350000000     0.500000000000     0          
C3       C      0.366250000000     0.407800000000     0.500000000000     0          
H1       H      0.360640000000     0.434760000000     0.500000000000     0          
O1       O      0.414765000000     0.202350000000     0.750000000000     0          
C3       C      0.366250000000     0.157800000000     0.750000000000     0          
H1       H      0.360640000000     0.184760000000     0.750000000000     0          
O1       O      0.164765000000     0.452350000000     0.750000000000     0          
C3       C      0.116250000000     0.407800000000     0.750000000000     0          
H1       H      0.110640000000     0.434760000000     0.750000000000     0          
O1       O      0.164765000000     0.202350000000     0.500000000000     0          
C3       C      0.116250000000     0.157800000000     0.500000000000     0          
H1       H      0.110640000000     0.184760000000     0.500000000000     0          
O1       O      0.085235000000     0.452350000000     0.500000000000     0          
C3       C      0.133750000000     0.407800000000     0.500000000000     0          
H1       H      0.139360000000     0.434760000000     0.500000000000     0          
O1       O      0.085235000000     0.202350000000     0.750000000000     0          
C3       C      0.133750000000     0.157800000000     0.750000000000     0          
H1       H      0.139360000000     0.184760000000     0.750000000000     0          
O1       O      0.335235000000     0.452350000000     0.750000000000     0          
C3       C      0.383750000000     0.407800000000     0.750000000000     0          
H1       H      0.389360000000     0.434760000000     0.750000000000     0          
O1       O      0.335235000000     0.202350000000     0.500000000000     0          
C3       C      0.383750000000     0.157800000000     0.500000000000     0          
H1       H      0.389360000000     0.184760000000     0.500000000000     0          
O1       O      0.047650000000     0.000000000000     0.914765000000     0          
C3       C      0.092200000000     0.000000000000     0.866250000000     0          
H1       H      0.065240000000     0.000000000000     0.860640000000     0          
O1       O      0.047650000000     0.250000000000     0.664765000000     0          
C3       C      0.092200000000     0.250000000000     0.616250000000     0          
H1       H      0.065240000000     0.250000000000     0.610640000000     0          
O1       O      0.297650000000     0.000000000000     0.664765000000     0          
C3       C      0.342200000000     0.000000000000     0.616250000000     0          
H1       H      0.315240000000     0.000000000000     0.610640000000     0          
O1       O      0.297650000000     0.250000000000     0.914765000000     0          
C3       C      0.342200000000     0.250000000000     0.866250000000     0          
H1       H      0.315240000000     0.250000000000     0.860640000000     0          
O1       O      0.047650000000     0.000000000000     0.585235000000     0          
C3       C      0.092200000000     0.000000000000     0.633750000000     0          
H1       H      0.065240000000     0.000000000000     0.639360000000     0          
O1       O      0.047650000000     0.250000000000     0.835235000000     0          
C3       C      0.092200000000     0.250000000000     0.883750000000     0          
H1       H      0.065240000000     0.250000000000     0.889360000000     0          
O1       O      0.297650000000     0.000000000000     0.835235000000     0          
C3       C      0.342200000000     0.000000000000     0.883750000000     0          
H1       H      0.315240000000     0.000000000000     0.889360000000     0          
O1       O      0.297650000000     0.250000000000     0.585235000000     0          
C3       C      0.342200000000     0.250000000000     0.633750000000     0          
H1       H      0.315240000000     0.250000000000     0.639360000000     0          
O1       O      0.452350000000     0.000000000000     0.585235000000     0          
C3       C      0.407800000000     0.000000000000     0.633750000000     0          
H1       H      0.434760000000     0.000000000000     0.639360000000     0          
O1       O      0.452350000000     0.250000000000     0.835235000000     0          
C3       C      0.407800000000     0.250000000000     0.883750000000     0          
H1       H      0.434760000000     0.250000000000     0.889360000000     0          
O1       O      0.202350000000     0.000000000000     0.835235000000     0          
C3       C      0.157800000000     0.000000000000     0.883750000000     0          
H1       H      0.184760000000     0.000000000000     0.889360000000     0          
O1       O      0.202350000000     0.250000000000     0.585235000000     0          
C3       C      0.157800000000     0.250000000000     0.633750000000     0          
H1       H      0.184760000000     0.250000000000     0.639360000000     0          
O1       O      0.452350000000     0.000000000000     0.914765000000     0          
C3       C      0.407800000000     0.000000000000     0.866250000000     0          
H1       H      0.434760000000     0.000000000000     0.860640000000     0          
O1       O      0.452350000000     0.250000000000     0.664765000000     0          
C3       C      0.407800000000     0.250000000000     0.616250000000     0          
H1       H      0.434760000000     0.250000000000     0.610640000000     0          
O1       O      0.202350000000     0.000000000000     0.664765000000     0          
C3       C      0.157800000000     0.000000000000     0.616250000000     0          
H1       H      0.184760000000     0.000000000000     0.610640000000     0          
O1       O      0.202350000000     0.250000000000     0.914765000000     0          
C3       C      0.157800000000     0.250000000000     0.866250000000     0          
H1       H      0.184760000000     0.250000000000     0.860640000000     0          
O2       O      0.028050000000     0.221950000000     0.721950000000     0          
O2       O      0.278050000000     0.471950000000     0.721950000000     0          
O2       O      0.278050000000     0.221950000000     0.971950000000     0          
O2       O      0.221950000000     0.028050000000     0.721950000000     0          
O2       O      0.221950000000     0.278050000000     0.971950000000     0          
O2       O      0.471950000000     0.471950000000     0.528050000000     0          
O2       O      0.471950000000     0.221950000000     0.778050000000     0          
O2       O      0.028050000000     0.028050000000     0.528050000000     0          
O2       O      0.278050000000     0.278050000000     0.528050000000     0          
O2       O      0.471950000000     0.028050000000     0.528050000000     0          
O2       O      0.471950000000     0.278050000000     0.778050000000     0          
O2       O      0.221950000000     0.028050000000     0.778050000000     0          
O2       O      0.221950000000     0.278050000000     0.528050000000     0          
O2       O      0.028050000000     0.471950000000     0.528050000000     0          
O2       O      0.028050000000     0.221950000000     0.778050000000     0          
O2       O      0.278050000000     0.471950000000     0.778050000000     0          
O2       O      0.278050000000     0.221950000000     0.528050000000     0          
O2       O      0.471950000000     0.471950000000     0.971950000000     0          
O2       O      0.471950000000     0.221950000000     0.721950000000     0          
O2       O      0.221950000000     0.471950000000     0.721950000000     0          
O2       O      0.221950000000     0.221950000000     0.971950000000     0          
O2       O      0.028050000000     0.028050000000     0.971950000000     0          
O2       O      0.028050000000     0.278050000000     0.721950000000     0          
O2       O      0.278050000000     0.028050000000     0.721950000000     0          
C1       C      0.076800000000     0.000000000000     0.923200000000     0          
C1       C      0.076800000000     0.250000000000     0.673200000000     0          
C1       C      0.326800000000     0.000000000000     0.673200000000     0          
C1       C      0.326800000000     0.250000000000     0.923200000000     0          
C1       C      0.423200000000     0.000000000000     0.923200000000     0          
C1       C      0.423200000000     0.250000000000     0.673200000000     0          
C1       C      0.173200000000     0.000000000000     0.673200000000     0          
C1       C      0.173200000000     0.250000000000     0.923200000000     0          
C1       C      0.423200000000     0.000000000000     0.576800000000     0          
C1       C      0.423200000000     0.250000000000     0.826800000000     0          
C1       C      0.173200000000     0.000000000000     0.826800000000     0          
C1       C      0.173200000000     0.250000000000     0.576800000000     0          
C1       C      0.076800000000     0.000000000000     0.576800000000     0          
C1       C      0.076800000000     0.250000000000     0.826800000000     0          
C1       C      0.326800000000     0.000000000000     0.826800000000     0          
C1       C      0.326800000000     0.250000000000     0.576800000000     0          
C1       C      0.423200000000     0.076800000000     0.500000000000     0          
C1       C      0.423200000000     0.326800000000     0.750000000000     0          
C1       C      0.173200000000     0.076800000000     0.750000000000     0          
C1       C      0.173200000000     0.326800000000     0.500000000000     0          
C1       C      0.423200000000     0.423200000000     0.500000000000     0          
C1       C      0.423200000000     0.173200000000     0.750000000000     0          
C1       C      0.173200000000     0.423200000000     0.750000000000     0          
C1       C      0.173200000000     0.173200000000     0.500000000000     0          
C1       C      0.076800000000     0.423200000000     0.500000000000     0          
C1       C      0.076800000000     0.173200000000     0.750000000000     0          
C1       C      0.326800000000     0.423200000000     0.750000000000     0          
C1       C      0.326800000000     0.173200000000     0.500000000000     0          
C1       C      0.076800000000     0.076800000000     0.500000000000     0          
C1       C      0.076800000000     0.326800000000     0.750000000000     0          
C1       C      0.326800000000     0.076800000000     0.750000000000     0          
C1       C      0.326800000000     0.326800000000     0.500000000000     0          
C1       C      0.000000000000     0.423200000000     0.576800000000     0          
C1       C      0.000000000000     0.173200000000     0.826800000000     0          
C1       C      0.250000000000     0.423200000000     0.826800000000     0          
C1       C      0.250000000000     0.173200000000     0.576800000000     0          
C1       C      0.000000000000     0.423200000000     0.923200000000     0          
C1       C      0.000000000000     0.173200000000     0.673200000000     0          
C1       C      0.250000000000     0.423200000000     0.673200000000     0          
C1       C      0.250000000000     0.173200000000     0.923200000000     0          
C1       C      0.000000000000     0.076800000000     0.923200000000     0          
C1       C      0.000000000000     0.326800000000     0.673200000000     0          
C1       C      0.250000000000     0.076800000000     0.673200000000     0          
C1       C      0.250000000000     0.326800000000     0.923200000000     0          
C1       C      0.000000000000     0.076800000000     0.576800000000     0          
C1       C      0.000000000000     0.326800000000     0.826800000000     0          
C1       C      0.250000000000     0.076800000000     0.826800000000     0          
C1       C      0.250000000000     0.326800000000     0.576800000000     0          
C2       C      0.102500000000     0.000000000000     0.602500000000     0          
C2       C      0.102500000000     0.250000000000     0.852500000000     0          
C2       C      0.352500000000     0.000000000000     0.852500000000     0          
C2       C      0.352500000000     0.250000000000     0.602500000000     0          
C2       C      0.397500000000     0.000000000000     0.602500000000     0          
C2       C      0.397500000000     0.250000000000     0.852500000000     0          
C2       C      0.147500000000     0.000000000000     0.852500000000     0          
C2       C      0.147500000000     0.250000000000     0.602500000000     0          
C2       C      0.397500000000     0.000000000000     0.897500000000     0          
C2       C      0.397500000000     0.250000000000     0.647500000000     0          
C2       C      0.147500000000     0.000000000000     0.647500000000     0          
C2       C      0.147500000000     0.250000000000     0.897500000000     0          
C2       C      0.102500000000     0.000000000000     0.897500000000     0          
C2       C      0.102500000000     0.250000000000     0.647500000000     0          
C2       C      0.352500000000     0.000000000000     0.647500000000     0          
C2       C      0.352500000000     0.250000000000     0.897500000000     0          
C2       C      0.102500000000     0.102500000000     0.500000000000     0          
C2       C      0.102500000000     0.352500000000     0.750000000000     0          
C2       C      0.352500000000     0.102500000000     0.750000000000     0          
C2       C      0.352500000000     0.352500000000     0.500000000000     0          
C2       C      0.102500000000     0.397500000000     0.500000000000     0          
C2       C      0.102500000000     0.147500000000     0.750000000000     0          
C2       C      0.352500000000     0.397500000000     0.750000000000     0          
C2       C      0.352500000000     0.147500000000     0.500000000000     0          
C2       C      0.397500000000     0.397500000000     0.500000000000     0          
C2       C      0.397500000000     0.147500000000     0.750000000000     0          
C2       C      0.147500000000     0.397500000000     0.750000000000     0          
C2       C      0.147500000000     0.147500000000     0.500000000000     0          
C2       C      0.397500000000     0.102500000000     0.500000000000     0          
C2       C      0.397500000000     0.352500000000     0.750000000000     0          
C2       C      0.147500000000     0.102500000000     0.750000000000     0          
C2       C      0.147500000000     0.352500000000     0.500000000000     0          
C2       C      0.000000000000     0.102500000000     0.602500000000     0          
C2       C      0.000000000000     0.352500000000     0.852500000000     0          
C2       C      0.250000000000     0.102500000000     0.852500000000     0          
C2       C      0.250000000000     0.352500000000     0.602500000000     0          
C2       C      0.000000000000     0.102500000000     0.897500000000     0          
C2       C      0.000000000000     0.352500000000     0.647500000000     0          
C2       C      0.250000000000     0.102500000000     0.647500000000     0          
C2       C      0.250000000000     0.352500000000     0.897500000000     0          
C2       C      0.000000000000     0.397500000000     0.897500000000     0          
C2       C      0.000000000000     0.147500000000     0.647500000000     0          
C2       C      0.250000000000     0.397500000000     0.647500000000     0          
C2       C      0.250000000000     0.147500000000     0.897500000000     0          
C2       C      0.000000000000     0.397500000000     0.602500000000     0          
C2       C      0.000000000000     0.147500000000     0.852500000000     0          
C2       C      0.250000000000     0.397500000000     0.852500000000     0          
C2       C      0.250000000000     0.147500000000     0.602500000000     0          
Zr1      Zr     0.059945000000     0.500000000000     0.000000000000     0          
Zr1      Zr     0.059945000000     0.750000000000     0.250000000000     0          
Zr1      Zr     0.309945000000     0.500000000000     0.250000000000     0          
Zr1      Zr     0.309945000000     0.750000000000     0.000000000000     0          
Zr1      Zr     0.440055000000     0.500000000000     0.000000000000     0          
Zr1      Zr     0.440055000000     0.750000000000     0.250000000000     0          
Zr1      Zr     0.190055000000     0.500000000000     0.250000000000     0          
Zr1      Zr     0.190055000000     0.750000000000     0.000000000000     0          
Zr1      Zr     0.000000000000     0.559945000000     0.000000000000     0          
Zr1      Zr     0.000000000000     0.809945000000     0.250000000000     0          
Zr1      Zr     0.250000000000     0.559945000000     0.250000000000     0          
Zr1      Zr     0.250000000000     0.809945000000     0.000000000000     0          
Zr1      Zr     0.000000000000     0.940055000000     0.000000000000     0          
Zr1      Zr     0.000000000000     0.690055000000     0.250000000000     0          
Zr1      Zr     0.250000000000     0.940055000000     0.250000000000     0          
Zr1      Zr     0.250000000000     0.690055000000     0.000000000000     0          
Zr1      Zr     0.000000000000     0.500000000000     0.059945000000     0          
Zr1      Zr     0.000000000000     0.750000000000     0.309945000000     0          
Zr1      Zr     0.250000000000     0.500000000000     0.309945000000     0          
Zr1      Zr     0.250000000000     0.750000000000     0.059945000000     0          
Zr1      Zr     0.000000000000     0.500000000000     0.440055000000     0          
Zr1      Zr     0.000000000000     0.750000000000     0.190055000000     0          
Zr1      Zr     0.250000000000     0.500000000000     0.190055000000     0          
Zr1      Zr     0.250000000000     0.750000000000     0.440055000000     0          
O1       O      0.085235000000     0.500000000000     0.047650000000     0          
C3       C      0.133750000000     0.500000000000     0.092200000000     0          
H1       H      0.139360000000     0.500000000000     0.065240000000     0          
O1       O      0.085235000000     0.750000000000     0.297650000000     0          
C3       C      0.133750000000     0.750000000000     0.342200000000     0          
H1       H      0.139360000000     0.750000000000     0.315240000000     0          
O1       O      0.335235000000     0.500000000000     0.297650000000     0          
C3       C      0.383750000000     0.500000000000     0.342200000000     0          
H1       H      0.389360000000     0.500000000000     0.315240000000     0          
O1       O      0.335235000000     0.750000000000     0.047650000000     0          
C3       C      0.383750000000     0.750000000000     0.092200000000     0          
H1       H      0.389360000000     0.750000000000     0.065240000000     0          
O1       O      0.414765000000     0.500000000000     0.047650000000     0          
C3       C      0.366250000000     0.500000000000     0.092200000000     0          
H1       H      0.360640000000     0.500000000000     0.065240000000     0          
O1       O      0.414765000000     0.750000000000     0.297650000000     0          
C3       C      0.366250000000     0.750000000000     0.342200000000     0          
H1       H      0.360640000000     0.750000000000     0.315240000000     0          
O1       O      0.164765000000     0.500000000000     0.297650000000     0          
C3       C      0.116250000000     0.500000000000     0.342200000000     0          
H1       H      0.110640000000     0.500000000000     0.315240000000     0          
O1       O      0.164765000000     0.750000000000     0.047650000000     0          
C3       C      0.116250000000     0.750000000000     0.092200000000     0          
H1       H      0.110640000000     0.750000000000     0.065240000000     0          
O1       O      0.414765000000     0.500000000000     0.452350000000     0          
C3       C      0.366250000000     0.500000000000     0.407800000000     0          
H1       H      0.360640000000     0.500000000000     0.434760000000     0          
O1       O      0.414765000000     0.750000000000     0.202350000000     0          
C3       C      0.366250000000     0.750000000000     0.157800000000     0          
H1       H      0.360640000000     0.750000000000     0.184760000000     0          
O1       O      0.164765000000     0.500000000000     0.202350000000     0          
C3       C      0.116250000000     0.500000000000     0.157800000000     0          
H1       H      0.110640000000     0.500000000000     0.184760000000     0          
O1       O      0.164765000000     0.750000000000     0.452350000000     0          
C3       C      0.116250000000     0.750000000000     0.407800000000     0          
H1       H      0.110640000000     0.750000000000     0.434760000000     0          
O1       O      0.085235000000     0.500000000000     0.452350000000     0          
C3       C      0.133750000000     0.500000000000     0.407800000000     0          
H1       H      0.139360000000     0.500000000000     0.434760000000     0          
O1       O      0.085235000000     0.750000000000     0.202350000000     0          
C3       C      0.133750000000     0.750000000000     0.157800000000     0          
H1       H      0.139360000000     0.750000000000     0.184760000000     0          
O1       O      0.335235000000     0.500000000000     0.202350000000     0          
C3       C      0.383750000000     0.500000000000     0.157800000000     0          
H1       H      0.389360000000     0.500000000000     0.184760000000     0          
O1       O      0.335235000000     0.750000000000     0.452350000000     0          
C3       C      0.383750000000     0.750000000000     0.407800000000     0          
H1       H      0.389360000000     0.750000000000     0.434760000000     0          
O1       O      0.047650000000     0.585235000000     0.000000000000     0          
C3       C      0.092200000000     0.633750000000     0.000000000000     0          
H1       H      0.065240000000     0.639360000000     0.000000000000     0          
O1       O      0.047650000000     0.835235000000     0.250000000000     0          
C3       C      0.092200000000     0.883750000000     0.250000000000     0          
H1       H      0.065240000000     0.889360000000     0.250000000000     0          
O1       O      0.297650000000     0.585235000000     0.250000000000     0          
C3       C      0.342200000000     0.633750000000     0.250000000000     0          
H1       H      0.315240000000     0.639360000000     0.250000000000     0          
O1       O      0.297650000000     0.835235000000     0.000000000000     0          
C3       C      0.342200000000     0.883750000000     0.000000000000     0          
H1       H      0.315240000000     0.889360000000     0.000000000000     0          
O1       O      0.047650000000     0.914765000000     0.000000000000     0          
C3       C      0.092200000000     0.866250000000     0.000000000000     0          
H1       H      0.065240000000     0.860640000000     0.000000000000     0          
O1       O      0.047650000000     0.664765000000     0.250000000000     0          
C3       C      0.092200000000     0.616250000000     0.250000000000     0          
H1       H      0.065240000000     0.610640000000     0.250000000000     0          
O1       O      0.297650000000     0.914765000000     0.250000000000     0          
C3       C      0.342200000000     0.866250000000     0.250000000000     0          
H1       H      0.315240000000     0.860640000000     0.250000000000     0          
O1       O      0.297650000000     0.664765000000     0.000000000000     0          
C3       C      0.342200000000     0.616250000000     0.000000000000     0          
H1       H      0.315240000000     0.610640000000     0.000000000000     0          
O1       O      0.452350000000     0.914765000000     0.000000000000     0          
C3       C      0.407800000000     0.866250000000     0.000000000000     0          
H1       H      0.434760000000     0.860640000000     0.000000000000     0          
O1       O      0.452350000000     0.664765000000     0.250000000000     0          
C3       C      0.407800000000     0.616250000000     0.250000000000     0          
H1       H      0.434760000000     0.610640000000     0.250000000000     0          
O1       O      0.202350000000     0.914765000000     0.250000000000     0          
C3       C      0.157800000000     0.866250000000     0.250000000000     0          
H1       H      0.184760000000     0.860640000000     0.250000000000     0          
O1       O      0.202350000000     0.664765000000     0.000000000000     0          
C3       C      0.157800000000     0.616250000000     0.000000000000     0          
H1       H      0.184760000000     0.610640000000     0.000000000000     0          
O1       O      0.452350000000     0.585235000000     0.000000000000     0          
C3       C      0.407800000000     0.633750000000     0.000000000000     0          
H1       H      0.434760000000     0.639360000000     0.000000000000     0          
O1       O      0.452350000000     0.835235000000     0.250000000000     0          
C3       C      0.407800000000     0.883750000000     0.250000000000     0          
H1       H      0.434760000000     0.889360000000     0.250000000000     0          
O1       O      0.202350000000     0.585235000000     0.250000000000     0          
C3       C      0.157800000000     0.633750000000     0.250000000000     0          
H1       H      0.184760000000     0.639360000000     0.250000000000     0          
O1       O      0.202350000000     0.835235000000     0.000000000000     0          
C3       C      0.157800000000     0.883750000000     0.000000000000     0          
H1       H      0.184760000000     0.889360000000     0.000000000000     0          
O1       O      0.000000000000     0.547650000000     0.085235000000     0          
C3       C      0.000000000000     0.592200000000     0.133750000000     0          
H1       H      0.000000000000     0.565240000000     0.139360000000     0          
O1       O      0.000000000000     0.797650000000     0.335235000000     0          
C3       C      0.000000000000     0.842200000000     0.383750000000     0          
H1       H      0.000000000000     0.815240000000     0.389360000000     0          
O1       O      0.250000000000     0.547650000000     0.335235000000     0          
C3       C      0.250000000000     0.592200000000     0.383750000000     0          
H1       H      0.250000000000     0.565240000000     0.389360000000     0          
O1       O      0.250000000000     0.797650000000     0.085235000000     0          
C3       C      0.250000000000     0.842200000000     0.133750000000     0          
H1       H      0.250000000000     0.815240000000     0.139360000000     0          
O1       O      0.000000000000     0.547650000000     0.414765000000     0          
C3       C      0.000000000000     0.592200000000     0.366250000000     0          
H1       H      0.000000000000     0.565240000000     0.360640000000     0          
O1       O      0.000000000000     0.797650000000     0.164765000000     0          
C3       C      0.000000000000     0.842200000000     0.116250000000     0          
H1       H      0.000000000000     0.815240000000     0.110640000000     0          
O1       O      0.250000000000     0.547650000000     0.164765000000     0          
C3       C      0.250000000000     0.592200000000     0.116250000000     0          
H1       H      0.250000000000     0.565240000000     0.110640000000     0          
O1       O      0.250000000000     0.797650000000     0.414765000000     0          
C3       C      0.250000000000     0.842200000000     0.366250000000     0          
H1       H      0.250000000000     0.815240000000     0.360640000000     0          
O1       O      0.000000000000     0.952350000000     0.414765000000     0          
C3       C      0.000000000000     0.907800000000     0.366250000000     0          
H1       H      0.000000000000     0.934760000000     0.360640000000     0          
O1       O      0.000000000000     0.702350000000     0.164765000000     0          
C3       C      0.000000000000     0.657800000000     0.116250000000     0          
H1       H      0.000000000000     0.684760000000     0.110640000000     0          
O1       O      0.250000000000     0.952350000000     0.164765000000     0          
C3       C      0.250000000000     0.907800000000     0.116250000000     0          
H1       H      0.250000000000     0.934760000000     0.110640000000     0          
O1       O      0.250000000000     0.702350000000     0.414765000000     0          
C3       C      0.250000000000     0.657800000000     0.366250000000     0          
H1       H      0.250000000000     0.684760000000     0.360640000000     0          
O1       O      0.000000000000     0.952350000000     0.085235000000     0          
C3       C      0.000000000000     0.907800000000     0.133750000000     0          
H1       H      0.000000000000     0.934760000000     0.139360000000     0          
O1       O      0.000000000000     0.702350000000     0.335235000000     0          
C3       C      0.000000000000     0.657800000000     0.383750000000     0          
H1       H      0.000000000000     0.684760000000     0.389360000000     0          
O1       O      0.250000000000     0.952350000000     0.335235000000     0          
C3       C      0.250000000000     0.907800000000     0.383750000000     0          
H1       H      0.250000000000     0.934760000000     0.389360000000     0          
O1       O      0.250000000000     0.702350000000     0.085235000000     0          
C3       C      0.250000000000     0.657800000000     0.133750000000     0          
H1       H      0.250000000000     0.684760000000     0.139360000000     0          
O1       O      0.000000000000     0.585235000000     0.452350000000     0          
C3       C      0.000000000000     0.633750000000     0.407800000000     0          
H1       H      0.000000000000     0.639360000000     0.434760000000     0          
O1       O      0.000000000000     0.835235000000     0.202350000000     0          
C3       C      0.000000000000     0.883750000000     0.157800000000     0          
H1       H      0.000000000000     0.889360000000     0.184760000000     0          
O1       O      0.250000000000     0.585235000000     0.202350000000     0          
C3       C      0.250000000000     0.633750000000     0.157800000000     0          
H1       H      0.250000000000     0.639360000000     0.184760000000     0          
O1       O      0.250000000000     0.835235000000     0.452350000000     0          
C3       C      0.250000000000     0.883750000000     0.407800000000     0          
H1       H      0.250000000000     0.889360000000     0.434760000000     0          
O1       O      0.000000000000     0.914765000000     0.452350000000     0          
C3       C      0.000000000000     0.866250000000     0.407800000000     0          
H1       H      0.000000000000     0.860640000000     0.434760000000     0          
O1       O      0.000000000000     0.664765000000     0.202350000000     0          
C3       C      0.000000000000     0.616250000000     0.157800000000     0          
H1       H      0.000000000000     0.610640000000     0.184760000000     0          
O1       O      0.250000000000     0.914765000000     0.202350000000     0          
C3       C      0.250000000000     0.866250000000     0.157800000000     0          
H1       H      0.250000000000     0.860640000000     0.184760000000     0          
O1       O      0.250000000000     0.664765000000     0.452350000000     0          
C3       C      0.250000000000     0.616250000000     0.407800000000     0          
H1       H      0.250000000000     0.610640000000     0.434760000000     0          
O1       O      0.000000000000     0.914765000000     0.047650000000     0          
C3       C      0.000000000000     0.866250000000     0.092200000000     0          
H1       H      0.000000000000     0.860640000000     0.065240000000     0          
O1       O      0.000000000000     0.664765000000     0.297650000000     0          
C3       C      0.000000000000     0.616250000000     0.342200000000     0          
H1       H      0.000000000000     0.610640000000     0.315240000000     0          
O1       O      0.250000000000     0.914765000000     0.297650000000     0          
C3       C      0.250000000000     0.866250000000     0.342200000000     0          
H1       H      0.250000000000     0.860640000000     0.315240000000     0          
O1       O      0.250000000000     0.664765000000     0.047650000000     0          
C3       C      0.250000000000     0.616250000000     0.092200000000     0          
H1       H      0.250000000000     0.610640000000     0.065240000000     0          
O1       O      0.000000000000     0.585235000000     0.047650000000     0          
C3       C      0.000000000000     0.633750000000     0.092200000000     0          
H1       H      0.000000000000     0.639360000000     0.065240000000     0          
O1       O      0.000000000000     0.835235000000     0.297650000000     0          
C3       C      0.000000000000     0.883750000000     0.342200000000     0          
H1       H      0.000000000000     0.889360000000     0.315240000000     0          
O1       O      0.250000000000     0.585235000000     0.297650000000     0          
C3       C      0.250000000000     0.633750000000     0.342200000000     0          
H1       H      0.250000000000     0.639360000000     0.315240000000     0          
O1       O      0.250000000000     0.835235000000     0.047650000000     0          
C3       C      0.250000000000     0.883750000000     0.092200000000     0          
H1       H      0.250000000000     0.889360000000     0.065240000000     0          
O1       O      0.085235000000     0.547650000000     0.000000000000     0          
C3       C      0.133750000000     0.592200000000     0.000000000000     0          
H1       H      0.139360000000     0.565240000000     0.000000000000     0          
O1       O      0.085235000000     0.797650000000     0.250000000000     0          
C3       C      0.133750000000     0.842200000000     0.250000000000     0          
H1       H      0.139360000000     0.815240000000     0.250000000000     0          
O1       O      0.335235000000     0.547650000000     0.250000000000     0          
C3       C      0.383750000000     0.592200000000     0.250000000000     0          
H1       H      0.389360000000     0.565240000000     0.250000000000     0          
O1       O      0.335235000000     0.797650000000     0.000000000000     0          
C3       C      0.383750000000     0.842200000000     0.000000000000     0          
H1       H      0.389360000000     0.815240000000     0.000000000000     0          
O1       O      0.414765000000     0.547650000000     0.000000000000     0          
C3       C      0.366250000000     0.592200000000     0.000000000000     0          
H1       H      0.360640000000     0.565240000000     0.000000000000     0          
O1       O      0.414765000000     0.797650000000     0.250000000000     0          
C3       C      0.366250000000     0.842200000000     0.250000000000     0          
H1       H      0.360640000000     0.815240000000     0.250000000000     0          
O1       O      0.164765000000     0.547650000000     0.250000000000     0          
C3       C      0.116250000000     0.592200000000     0.250000000000     0          
H1       H      0.110640000000     0.565240000000     0.250000000000     0          
O1       O      0.164765000000     0.797650000000     0.000000000000     0          
C3       C      0.116250000000     0.842200000000     0.000000000000     0          
H1       H      0.110640000000     0.815240000000     0.000000000000     0          
O1       O      0.414765000000     0.952350000000     0.000000000000     0          
C3       C      0.366250000000     0.907800000000     0.000000000000     0          
H1       H      0.360640000000     0.934760000000     0.000000000000     0          
O1       O      0.414765000000     0.702350000000     0.250000000000     0          
C3       C      0.366250000000     0.657800000000     0.250000000000     0          
H1       H      0.360640000000     0.684760000000     0.250000000000     0          
O1       O      0.164765000000     0.952350000000     0.250000000000     0          
C3       C      0.116250000000     0.907800000000     0.250000000000     0          
H1       H      0.110640000000     0.934760000000     0.250000000000     0          
O1       O      0.164765000000     0.702350000000     0.000000000000     0          
C3       C      0.116250000000     0.657800000000     0.000000000000     0          
H1       H      0.110640000000     0.684760000000     0.000000000000     0          
O1       O      0.085235000000     0.952350000000     0.000000000000     0          
C3       C      0.133750000000     0.907800000000     0.000000000000     0          
H1       H      0.139360000000     0.934760000000     0.000000000000     0          
O1       O      0.085235000000     0.702350000000     0.250000000000     0          
C3       C      0.133750000000     0.657800000000     0.250000000000     0          
H1       H      0.139360000000     0.684760000000     0.250000000000     0          
O1       O      0.335235000000     0.952350000000     0.250000000000     0          
C3       C      0.383750000000     0.907800000000     0.250000000000     0          
H1       H      0.389360000000     0.934760000000     0.250000000000     0          
O1       O      0.335235000000     0.702350000000     0.000000000000     0          
C3       C      0.383750000000     0.657800000000     0.000000000000     0          
H1       H      0.389360000000     0.684760000000     0.000000000000     0          
O1       O      0.047650000000     0.500000000000     0.414765000000     0          
C3       C      0.092200000000     0.500000000000     0.366250000000     0          
H1       H      0.065240000000     0.500000000000     0.360640000000     0          
O1       O      0.047650000000     0.750000000000     0.164765000000     0          
C3       C      0.092200000000     0.750000000000     0.116250000000     0          
H1       H      0.065240000000     0.750000000000     0.110640000000     0          
O1       O      0.297650000000     0.500000000000     0.164765000000     0          
C3       C      0.342200000000     0.500000000000     0.116250000000     0          
H1       H      0.315240000000     0.500000000000     0.110640000000     0          
O1       O      0.297650000000     0.750000000000     0.414765000000     0          
C3       C      0.342200000000     0.750000000000     0.366250000000     0          
H1       H      0.315240000000     0.750000000000     0.360640000000     0          
O1       O      0.047650000000     0.500000000000     0.085235000000     0          
C3       C      0.092200000000     0.500000000000     0.133750000000     0          
H1       H      0.065240000000     0.500000000000     0.139360000000     0          
O1       O      0.047650000000     0.750000000000     0.335235000000     0          
C3       C      0.092200000000     0.750000000000     0.383750000000     0          
H1       H      0.065240000000     0.750000000000     0.389360000000     0          
O1       O      0.297650000000     0.500000000000     0.335235000000     0          
C3       C      0.342200000000     0.500000000000     0.383750000000     0          
H1       H      0.315240000000     0.500000000000     0.389360000000     0          
O1       O      0.297650000000     0.750000000000     0.085235000000     0          
C3       C      0.342200000000     0.750000000000     0.133750000000     0          
H1       H      0.315240000000     0.750000000000     0.139360000000     0          
O1       O      0.452350000000     0.500000000000     0.085235000000     0          
C3       C      0.407800000000     0.500000000000     0.133750000000     0          
H1       H      0.434760000000     0.500000000000     0.139360000000     0          
O1       O      0.452350000000     0.750000000000     0.335235000000     0          
C3       C      0.407800000000     0.750000000000     0.383750000000     0          
H1       H      0.434760000000     0.750000000000     0.389360000000     0          
O1       O      0.202350000000     0.500000000000     0.335235000000     0          
C3       C      0.157800000000     0.500000000000     0.383750000000     0          
H1       H      0.184760000000     0.500000000000     0.389360000000     0          
O1       O      0.202350000000     0.750000000000     0.085235000000     0          
C3       C      0.157800000000     0.750000000000     0.133750000000     0          
H1       H      0.184760000000     0.750000000000     0.139360000000     0          
O1       O      0.452350000000     0.500000000000     0.414765000000     0          
C3       C      0.407800000000     0.500000000000     0.366250000000     0          
H1       H      0.434760000000     0.500000000000     0.360640000000     0          
O1       O      0.452350000000     0.750000000000     0.164765000000     0          
C3       C      0.407800000000     0.750000000000     0.116250000000     0          
H1       H      0.434760000000     0.750000000000     0.110640000000     0          
O1       O      0.202350000000     0.500000000000     0.164765000000     0          
C3       C      0.157800000000     0.500000000000     0.116250000000     0          
H1       H      0.184760000000     0.500000000000     0.110640000000     0          
O1       O      0.202350000000     0.750000000000     0.414765000000     0          
C3       C      0.157800000000     0.750000000000     0.366250000000     0          
H1       H      0.184760000000     0.750000000000     0.360640000000     0          
O2       O      0.028050000000     0.721950000000     0.221950000000     0          
O2       O      0.278050000000     0.971950000000     0.221950000000     0          
O2       O      0.278050000000     0.721950000000     0.471950000000     0          
O2       O      0.221950000000     0.528050000000     0.221950000000     0          
O2       O      0.221950000000     0.778050000000     0.471950000000     0          
O2       O      0.471950000000     0.971950000000     0.028050000000     0          
O2       O      0.471950000000     0.721950000000     0.278050000000     0          
O2       O      0.028050000000     0.528050000000     0.028050000000     0          
O2       O      0.278050000000     0.778050000000     0.028050000000     0          
O2       O      0.471950000000     0.528050000000     0.028050000000     0          
O2       O      0.471950000000     0.778050000000     0.278050000000     0          
O2       O      0.221950000000     0.528050000000     0.278050000000     0          
O2       O      0.221950000000     0.778050000000     0.028050000000     0          
O2       O      0.028050000000     0.971950000000     0.028050000000     0          
O2       O      0.028050000000     0.721950000000     0.278050000000     0          
O2       O      0.278050000000     0.971950000000     0.278050000000     0          
O2       O      0.278050000000     0.721950000000     0.028050000000     0          
O2       O      0.471950000000     0.971950000000     0.471950000000     0          
O2       O      0.471950000000     0.721950000000     0.221950000000     0          
O2       O      0.221950000000     0.971950000000     0.221950000000     0          
O2       O      0.221950000000     0.721950000000     0.471950000000     0          
O2       O      0.028050000000     0.528050000000     0.471950000000     0          
O2       O      0.028050000000     0.778050000000     0.221950000000     0          
O2       O      0.278050000000     0.528050000000     0.221950000000     0          
C1       C      0.076800000000     0.500000000000     0.423200000000     0          
C1       C      0.076800000000     0.750000000000     0.173200000000     0          
C1       C      0.326800000000     0.500000000000     0.173200000000     0          
C1       C      0.326800000000     0.750000000000     0.423200000000     0          
C1       C      0.423200000000     0.500000000000     0.423200000000     0          
C1       C      0.423200000000     0.750000000000     0.173200000000     0          
C1       C      0.173200000000     0.500000000000     0.173200000000     0          
C1       C      0.173200000000     0.750000000000     0.423200000000     0          
C1       C      0.423200000000     0.500000000000     0.076800000000     0          
C1       C      0.423200000000     0.750000000000     0.326800000000     0          
C1       C      0.173200000000     0.500000000000     0.326800000000     0          
C1       C      0.173200000000     0.750000000000     0.076800000000     0          
C1       C      0.076800000000     0.500000000000     0.076800000000     0          
C1       C      0.076800000000     0.750000000000     0.326800000000     0          
C1       C      0.326800000000     0.500000000000     0.326800000000     0          
C1       C      0.326800000000     0.750000000000     0.076800000000     0          
C1       C      0.423200000000     0.576800000000     0.000000000000     0          
C1       C      0.423200000000     0.826800000000     0.250000000000     0          
C1       C      0.173200000000     0.576800000000     0.250000000000     0          
C1       C      0.173200000000     0.826800000000     0.000000000000     0          
C1       C      0.423200000000     0.923200000000     0.000000000000     0          
C1       C      0.423200000000     0.673200000000     0.250000000000     0          
C1       C      0.173200000000     0.923200000000     0.250000000000     0          
C1       C      0.173200000000     0.673200000000     0.000000000000     0          
C1       C      0.076800000000     0.923200000000     0.000000000000     0          
C1       C      0.076800000000     0.673200000000     0.250000000000     0          
C1       C      0.326800000000     0.923200000000     0.250000000000     0          
C1       C      0.326800000000     0.673200000000     0.000000000000     0          
C1       C      0.076800000000     0.576800000000     0.000000000000     0          
C1       C      0.076800000000     0.826800000000     0.250000000000     0          
C1       C      0.326800000000     0.576800000000     0.250000000000     0          
C1       C      0.326800000000     0.826800000000     0.000000000000     0          
C1       C      0.000000000000     0.923200000000     0.076800000000     0          
C1       C      0.000000000000     0.673200000000     0.326800000000     0          
C1       C      0.250000000000     0.923200000000     0.326800000000     0          
C1       C      0.250000000000     0.673200000000     0.076800000000     0          
C1       C      0.000000000000     0.923200000000     0.423200000000     0          
C1       C      0.000000000000     0.673200000000     0.173200000000     0          
C1       C      0.250000000000     0.923200000000     0.173200000000     0          
C1       C      0.250000000000     0.673200000000     0.423200000000     0          
C1       C      0.000000000000     0.576800000000     0.423200000000     0          
C1       C      0.000000000000     0.826800000000     0.173200000000     0          
C1       C      0.250000000000     0.576800000000     0.173200000000     0          
C1       C      0.250000000000     0.826800000000     0.423200000000     0          
C1       C      0.000000000000     0.576800000000     0.076800000000     0          
C1       C      0.000000000000     0.826800000000     0.326800000000     0          
C1       C      0.250000000000     0.576800000000     0.326800000000     0          
C1       C      0.250000000000     0.826800000000     0.076800000000     0          
C2       C      0.102500000000     0.500000000000     0.102500000000     0          
C2       C      0.102500000000     0.750000000000     0.352500000000     0          
C2       C      0.352500000000     0.500000000000     0.352500000000     0          
C2       C      0.352500000000     0.750000000000     0.102500000000     0          
C2       C      0.397500000000     0.500000000000     0.102500000000     0          
C2       C      0.397500000000     0.750000000000     0.352500000000     0          
C2       C      0.147500000000     0.500000000000     0.352500000000     0          
C2       C      0.147500000000     0.750000000000     0.102500000000     0          
C2       C      0.397500000000     0.500000000000     0.397500000000     0          
C2       C      0.397500000000     0.750000000000     0.147500000000     0          
C2       C      0.147500000000     0.500000000000     0.147500000000     0          
C2       C      0.147500000000     0.750000000000     0.397500000000     0          
C2       C      0.102500000000     0.500000000000     0.397500000000     0          
C2       C      0.102500000000     0.750000000000     0.147500000000     0          
C2       C      0.352500000000     0.500000000000     0.147500000000     0          
C2       C      0.352500000000     0.750000000000     0.397500000000     0          
C2       C      0.102500000000     0.602500000000     0.000000000000     0          
C2       C      0.102500000000     0.852500000000     0.250000000000     0          
C2       C      0.352500000000     0.602500000000     0.250000000000     0          
C2       C      0.352500000000     0.852500000000     0.000000000000     0          
C2       C      0.102500000000     0.897500000000     0.000000000000     0          
C2       C      0.102500000000     0.647500000000     0.250000000000     0          
C2       C      0.352500000000     0.897500000000     0.250000000000     0          
C2       C      0.352500000000     0.647500000000     0.000000000000     0          
C2       C      0.397500000000     0.897500000000     0.000000000000     0          
C2       C      0.397500000000     0.647500000000     0.250000000000     0          
C2       C      0.147500000000     0.897500000000     0.250000000000     0          
C2       C      0.147500000000     0.647500000000     0.000000000000     0          
C2       C      0.397500000000     0.602500000000     0.000000000000     0          
C2       C      0.397500000000     0.852500000000     0.250000000000     0          
C2       C      0.147500000000     0.602500000000     0.250000000000     0          
C2       C      0.147500000000     0.852500000000     0.000000000000     0          
C2       C      0.000000000000     0.602500000000     0.102500000000     0          
C2       C      0.000000000000     0.852500000000     0.352500000000     0          
C2       C      0.250000000000     0.602500000000     0.352500000000     0          
C2       C      0.250000000000     0.852500000000     0.102500000000     0          
C2       C      0.000000000000     0.602500000000     0.397500000000     0          
C2       C      0.000000000000     0.852500000000     0.147500000000     0          
C2       C      0.250000000000     0.602500000000     0.147500000000     0          
C2       C      0.250000000000     0.852500000000     0.397500000000     0          
C2       C      0.000000000000     0.897500000000     0.397500000000     0          
C2       C      0.000000000000     0.647500000000     0.147500000000     0          
C2       C      0.250000000000     0.897500000000     0.147500000000     0          
C2       C      0.250000000000     0.647500000000     0.397500000000     0          
C2       C      0.000000000000     0.897500000000     0.102500000000     0          
C2       C      0.000000000000     0.647500000000     0.352500000000     0          
C2       C      0.250000000000     0.897500000000     0.352500000000     0          
C2       C      0.250000000000     0.647500000000     0.102500000000     0          
Zr1      Zr     0.059945000000     0.500000000000     0.500000000000     0          
Zr1      Zr     0.059945000000     0.750000000000     0.750000000000     0          
Zr1      Zr     0.309945000000     0.500000000000     0.750000000000     0          
Zr1      Zr     0.309945000000     0.750000000000     0.500000000000     0          
Zr1      Zr     0.440055000000     0.500000000000     0.500000000000     0          
Zr1      Zr     0.440055000000     0.750000000000     0.750000000000     0          
Zr1      Zr     0.190055000000     0.500000000000     0.750000000000     0          
Zr1      Zr     0.190055000000     0.750000000000     0.500000000000     0          
Zr1      Zr     0.000000000000     0.559945000000     0.500000000000     0          
Zr1      Zr     0.000000000000     0.809945000000     0.750000000000     0          
Zr1      Zr     0.250000000000     0.559945000000     0.750000000000     0          
Zr1      Zr     0.250000000000     0.809945000000     0.500000000000     0          
Zr1      Zr     0.000000000000     0.940055000000     0.500000000000     0          
Zr1      Zr     0.000000000000     0.690055000000     0.750000000000     0          
Zr1      Zr     0.250000000000     0.940055000000     0.750000000000     0          
Zr1      Zr     0.250000000000     0.690055000000     0.500000000000     0          
Zr1      Zr     0.000000000000     0.500000000000     0.559945000000     0          
Zr1      Zr     0.000000000000     0.750000000000     0.809945000000     0          
Zr1      Zr     0.250000000000     0.500000000000     0.809945000000     0          
Zr1      Zr     0.250000000000     0.750000000000     0.559945000000     0          
Zr1      Zr     0.000000000000     0.500000000000     0.940055000000     0          
Zr1      Zr     0.000000000000     0.750000000000     0.690055000000     0          
Zr1      Zr     0.250000000000     0.500000000000     0.690055000000     0          
Zr1      Zr     0.250000000000     0.750000000000     0.940055000000     0          
O1       O      0.085235000000     0.500000000000     0.547650000000     0          
C3       C      0.133750000000     0.500000000000     0.592200000000     0          
H1       H      0.139360000000     0.500000000000     0.565240000000     0          
O1       O      0.085235000000     0.750000000000     0.797650000000     0          
C3       C      0.133750000000     0.750000000000     0.842200000000     0          
H1       H      0.139360000000     0.750000000000     0.815240000000     0          
O1       O      0.335235000000     0.500000000000     0.797650000000     0          
C3       C      0.383750000000     0.500000000000     0.842200000000     0          
H1       H      0.389360000000     0.500000000000     0.815240000000     0          
O1       O      0.335235000000     0.750000000000     0.547650000000     0          
C3       C      0.383750000000     0.750000000000     0.592200000000     0          
H1       H      0.389360000000     0.750000000000     0.565240000000     0          
O1       O      0.414765000000     0.500000000000     0.547650000000     0          
C3       C      0.366250000000     0.500000000000     0.592200000000     0          
H1       H      0.360640000000     0.500000000000     0.565240000000     0          
O1       O      0.414765000000     0.750000000000     0.797650000000     0          
C3       C      0.366250000000     0.750000000000     0.842200000000     0          
H1       H      0.360640000000     0.750000000000     0.815240000000     0          
O1       O      0.164765000000     0.500000000000     0.797650000000     0          
C3       C      0.116250000000     0.500000000000     0.842200000000     0          
H1       H      0.110640000000     0.500000000000     0.815240000000     0          
O1       O      0.164765000000     0.750000000000     0.547650000000     0          
C3       C      0.116250000000     0.750000000000     0.592200000000     0          
H1       H      0.110640000000     0.750000000000     0.565240000000     0          
O1       O      0.414765000000     0.500000000000     0.952350000000     0          
C3       C      0.366250000000     0.500000000000     0.907800000000     0          
H1       H      0.360640000000     0.500000000000     0.934760000000     0          
O1       O      0.414765000000     0.750000000000     0.702350000000     0          
C3       C      0.366250000000     0.750000000000     0.657800000000     0          
H1       H      0.360640000000     0.750000000000     0.684760000000     0          
O1       O      0.164765000000     0.500000000000     0.702350000000     0          
C3       C      0.116250000000     0.500000000000     0.657800000000     0          
H1       H      0.110640000000     0.500000000000     0.684760000000     0          
O1       O      0.164765000000     0.750000000000     0.952350000000     0          
C3       C      0.116250000000     0.750000000000     0.907800000000     0          
H1       H      0.110640000000     0.750000000000     0.934760000000     0          
O1       O      0.085235000000     0.500000000000     0.952350000000     0          
C3       C      0.133750000000     0.500000000000     0.907800000000     0          
H1       H      0.139360000000     0.500000000000     0.934760000000     0          
O1       O      0.085235000000     0.750000000000     0.702350000000     0          
C3       C      0.133750000000     0.750000000000     0.657800000000     0          
H1       H      0.139360000000     0.750000000000     0.684760000000     0          
O1       O      0.335235000000     0.500000000000     0.702350000000     0          
C3       C      0.383750000000     0.500000000000     0.657800000000     0          
H1       H      0.389360000000     0.500000000000     0.684760000000     0          
O1       O      0.335235000000     0.750000000000     0.952350000000     0          
C3       C      0.383750000000     0.750000000000     0.907800000000     0          
H1       H      0.389360000000     0.750000000000     0.934760000000     0          
O1       O      0.047650000000     0.585235000000     0.500000000000     0          
C3       C      0.092200000000     0.633750000000     0.500000000000     0          
H1       H      0.065240000000     0.639360000000     0.500000000000     0          
O1       O      0.047650000000     0.835235000000     0.750000000000     0          
C3       C      0.092200000000     0.883750000000     0.750000000000     0          
H1       H      0.065240000000     0.889360000000     0.750000000000     0          
O1       O      0.297650000000     0.585235000000     0.750000000000     0          
C3       C      0.342200000000     0.633750000000     0.750000000000     0          
H1       H      0.315240000000     0.639360000000     0.750000000000     0          
O1       O      0.297650000000     0.835235000000     0.500000000000     0          
C3       C      0.342200000000     0.883750000000     0.500000000000     0          
H1       H      0.315240000000     0.889360000000     0.500000000000     0          
O1       O      0.047650000000     0.914765000000     0.500000000000     0          
C3       C      0.092200000000     0.866250000000     0.500000000000     0          
H1       H      0.065240000000     0.860640000000     0.500000000000     0          
O1       O      0.047650000000     0.664765000000     0.750000000000     0          
C3       C      0.092200000000     0.616250000000     0.750000000000     0          
H1       H      0.065240000000     0.610640000000     0.750000000000     0          
O1       O      0.297650000000     0.914765000000     0.750000000000     0          
C3       C      0.342200000000     0.866250000000     0.750000000000     0          
H1       H      0.315240000000     0.860640000000     0.750000000000     0          
O1       O      0.297650000000     0.664765000000     0.500000000000     0          
C3       C      0.342200000000     0.616250000000     0.500000000000     0          
H1       H      0.315240000000     0.610640000000     0.500000000000     0          
O1       O      0.452350000000     0.914765000000     0.500000000000     0          
C3       C      0.407800000000     0.866250000000     0.500000000000     0          
H1       H      0.434760000000     0.860640000000     0.500000000000     0          
O1       O      0.452350000000     0.664765000000     0.750000000000     0          
C3       C      0.407800000000     0.616250000000     0.750000000000     0          
H1       H      0.434760000000     0.610640000000     0.750000000000     0          
O1       O      0.202350000000     0.914765000000     0.750000000000     0          
C3       C      0.157800000000     0.866250000000     0.750000000000     0          
H1       H      0.184760000000     0.860640000000     0.750000000000     0          
O1       O      0.202350000000     0.664765000000     0.500000000000     0          
C3       C      0.157800000000     0.616250000000     0.500000000000     0          
H1       H      0.184760000000     0.610640000000     0.500000000000     0          
O1       O      0.452350000000     0.585235000000     0.500000000000     0          
C3       C      0.407800000000     0.633750000000     0.500000000000     0          
H1       H      0.434760000000     0.639360000000     0.500000000000     0          
O1       O      0.452350000000     0.835235000000     0.750000000000     0          
C3       C      0.407800000000     0.883750000000     0.750000000000     0          
H1       H      0.434760000000     0.889360000000     0.750000000000     0          
O1       O      0.202350000000     0.585235000000     0.750000000000     0          
C3       C      0.157800000000     0.633750000000     0.750000000000     0          
H1       H      0.184760000000     0.639360000000     0.750000000000     0          
O1       O      0.202350000000     0.835235000000     0.500000000000     0          
C3       C      0.157800000000     0.883750000000     0.500000000000     0          
H1       H      0.184760000000     0.889360000000     0.500000000000     0          
O1       O      0.000000000000     0.547650000000     0.585235000000     0          
C3       C      0.000000000000     0.592200000000     0.633750000000     0          
H1       H      0.000000000000     0.565240000000     0.639360000000     0          
O1       O      0.000000000000     0.797650000000     0.835235000000     0          
C3       C      0.000000000000     0.842200000000     0.883750000000     0          
H1       H      0.000000000000     0.815240000000     0.889360000000     0          
O1       O      0.250000000000     0.547650000000     0.835235000000     0          
C3       C      0.250000000000     0.592200000000     0.883750000000     0          
H1       H      0.250000000000     0.565240000000     0.889360000000     0          
O1       O      0.250000000000     0.797650000000     0.585235000000     0          
C3       C      0.250000000000     0.842200000000     0.633750000000     0          
H1       H      0.250000000000     0.815240000000     0.639360000000     0          
O1       O      0.000000000000     0.547650000000     0.914765000000     0          
C3       C      0.000000000000     0.592200000000     0.866250000000     0          
H1       H      0.000000000000     0.565240000000     0.860640000000     0          
O1       O      0.000000000000     0.797650000000     0.664765000000     0          
C3       C      0.000000000000     0.842200000000     0.616250000000     0          
H1       H      0.000000000000     0.815240000000     0.610640000000     0          
O1       O      0.250000000000     0.547650000000     0.664765000000     0          
C3       C      0.250000000000     0.592200000000     0.616250000000     0          
H1       H      0.250000000000     0.565240000000     0.610640000000     0          
O1       O      0.250000000000     0.797650000000     0.914765000000     0          
C3       C      0.250000000000     0.842200000000     0.866250000000     0          
H1       H      0.250000000000     0.815240000000     0.860640000000     0          
O1       O      0.000000000000     0.952350000000     0.914765000000     0          
C3       C      0.000000000000     0.907800000000     0.866250000000     0          
H1       H      0.000000000000     0.934760000000     0.860640000000     0          
O1       O      0.000000000000     0.702350000000     0.664765000000     0          
C3       C      0.000000000000     0.657800000000     0.616250000000     0          
H1       H      0.000000000000     0.684760000000     0.610640000000     0          
O1       O      0.250000000000     0.952350000000     0.664765000000     0          
C3       C      0.250000000000     0.907800000000     0.616250000000     0          
H1       H      0.250000000000     0.934760000000     0.610640000000     0          
O1       O      0.250000000000     0.702350000000     0.914765000000     0          
C3       C      0.250000000000     0.657800000000     0.866250000000     0          
H1       H      0.250000000000     0.684760000000     0.860640000000     0          
O1       O      0.000000000000     0.952350000000     0.585235000000     0          
C3       C      0.000000000000     0.907800000000     0.633750000000     0          
H1       H      0.000000000000     0.934760000000     0.639360000000     0          
O1       O      0.000000000000     0.702350000000     0.835235000000     0          
C3       C      0.000000000000     0.657800000000     0.883750000000     0          
H1       H      0.000000000000     0.684760000000     0.889360000000     0          
O1       O      0.250000000000     0.952350000000     0.835235000000     0          
C3       C      0.250000000000     0.907800000000     0.883750000000     0          
H1       H      0.250000000000     0.934760000000     0.889360000000     0          
O1       O      0.250000000000     0.702350000000     0.585235000000     0          
C3       C      0.250000000000     0.657800000000     0.633750000000     0          
H1       H      0.250000000000     0.684760000000     0.639360000000     0          
O1       O      0.000000000000     0.585235000000     0.952350000000     0          
C3       C      0.000000000000     0.633750000000     0.907800000000     0          
H1       H      0.000000000000     0.639360000000     0.934760000000     0          
O1       O      0.000000000000     0.835235000000     0.702350000000     0          
C3       C      0.000000000000     0.883750000000     0.657800000000     0          
H1       H      0.000000000000     0.889360000000     0.684760000000     0          
O1       O      0.250000000000     0.585235000000     0.702350000000     0          
C3       C      0.250000000000     0.633750000000     0.657800000000     0          
H1       H      0.250000000000     0.639360000000     0.684760000000     0          
O1       O      0.250000000000     0.835235000000     0.952350000000     0          
C3       C      0.250000000000     0.883750000000     0.907800000000     0          
H1       H      0.250000000000     0.889360000000     0.934760000000     0          
O1       O      0.000000000000     0.914765000000     0.952350000000     0          
C3       C      0.000000000000     0.866250000000     0.907800000000     0          
H1       H      0.000000000000     0.860640000000     0.934760000000     0          
O1       O      0.000000000000     0.664765000000     0.702350000000     0          
C3       C      0.000000000000     0.616250000000     0.657800000000     0          
H1       H      0.000000000000     0.610640000000     0.684760000000     0          
O1       O      0.250000000000     0.914765000000     0.702350000000     0          
C3       C      0.250000000000     0.866250000000     0.657800000000     0          
H1       H      0.250000000000     0.860640000000     0.684760000000     0          
O1       O      0.250000000000     0.664765000000     0.952350000000     0          
C3       C      0.250000000000     0.616250000000     0.907800000000     0          
H1       H      0.250000000000     0.610640000000     0.934760000000     0          
O1       O      0.000000000000     0.914765000000     0.547650000000     0          
C3       C      0.000000000000     0.866250000000     0.592200000000     0          
H1       H      0.000000000000     0.860640000000     0.565240000000     0          
O1       O      0.000000000000     0.664765000000     0.797650000000     0          
C3       C      0.000000000000     0.616250000000     0.842200000000     0          
H1       H      0.000000000000     0.610640000000     0.815240000000     0          
O1       O      0.250000000000     0.914765000000     0.797650000000     0          
C3       C      0.250000000000     0.866250000000     0.842200000000     0          
H1       H      0.250000000000     0.860640000000     0.815240000000     0          
O1       O      0.250000000000     0.664765000000     0.547650000000     0          
C3       C      0.250000000000     0.616250000000     0.592200000000     0          
H1       H      0.250000000000     0.610640000000     0.565240000000     0          
O1       O      0.000000000000     0.585235000000     0.547650000000     0          
C3       C      0.000000000000     0.633750000000     0.592200000000     0          
H1       H      0.000000000000     0.639360000000     0.565240000000     0          
O1       O      0.000000000000     0.835235000000     0.797650000000     0          
C3       C      0.000000000000     0.883750000000     0.842200000000     0          
H1       H      0.000000000000     0.889360000000     0.815240000000     0          
O1       O      0.250000000000     0.585235000000     0.797650000000     0          
C3       C      0.250000000000     0.633750000000     0.842200000000     0          
H1       H      0.250000000000     0.639360000000     0.815240000000     0          
O1       O      0.250000000000     0.835235000000     0.547650000000     0          
C3       C      0.250000000000     0.883750000000     0.592200000000     0          
H1       H      0.250000000000     0.889360000000     0.565240000000     0          
O1       O      0.085235000000     0.547650000000     0.500000000000     0          
C3       C      0.133750000000     0.592200000000     0.500000000000     0          
H1       H      0.139360000000     0.565240000000     0.500000000000     0          
O1       O      0.085235000000     0.797650000000     0.750000000000     0          
C3       C      0.133750000000     0.842200000000     0.750000000000     0          
H1       H      0.139360000000     0.815240000000     0.750000000000     0          
O1       O      0.335235000000     0.547650000000     0.750000000000     0          
C3       C      0.383750000000     0.592200000000     0.750000000000     0          
H1       H      0.389360000000     0.565240000000     0.750000000000     0          
O1       O      0.335235000000     0.797650000000     0.500000000000     0          
C3       C      0.383750000000     0.842200000000     0.500000000000     0          
H1       H      0.389360000000     0.815240000000     0.500000000000     0          
O1       O      0.414765000000     0.547650000000     0.500000000000     0          
C3       C      0.366250000000     0.592200000000     0.500000000000     0          
H1       H      0.360640000000     0.565240000000     0.500000000000     0          
O1       O      0.414765000000     0.797650000000     0.750000000000     0          
C3       C      0.366250000000     0.842200000000     0.750000000000     0          
H1       H      0.360640000000     0.815240000000     0.750000000000     0          
O1       O      0.164765000000     0.547650000000     0.750000000000     0          
C3       C      0.116250000000     0.592200000000     0.750000000000     0          
H1       H      0.110640000000     0.565240000000     0.750000000000     0          
O1       O      0.164765000000     0.797650000000     0.500000000000     0          
C3       C      0.116250000000     0.842200000000     0.500000000000     0          
H1       H      0.110640000000     0.815240000000     0.500000000000     0          
O1       O      0.414765000000     0.952350000000     0.500000000000     0          
C3       C      0.366250000000     0.907800000000     0.500000000000     0          
H1       H      0.360640000000     0.934760000000     0.500000000000     0          
O1       O      0.414765000000     0.702350000000     0.750000000000     0          
C3       C      0.366250000000     0.657800000000     0.750000000000     0          
H1       H      0.360640000000     0.684760000000     0.750000000000     0          
O1       O      0.164765000000     0.952350000000     0.750000000000     0          
C3       C      0.116250000000     0.907800000000     0.750000000000     0          
H1       H      0.110640000000     0.934760000000     0.750000000000     0          
O1       O      0.164765000000     0.702350000000     0.500000000000     0          
C3       C      0.116250000000     0.657800000000     0.500000000000     0          
H1       H      0.110640000000     0.684760000000     0.500000000000     0          
O1       O      0.085235000000     0.952350000000     0.500000000000     0          
C3       C      0.133750000000     0.907800000000     0.500000000000     0          
H1       H      0.139360000000     0.934760000000     0.500000000000     0          
O1       O      0.085235000000     0.702350000000     0.750000000000     0          
C3       C      0.133750000000     0.657800000000     0.750000000000     0          
H1       H      0.139360000000     0.684760000000     0.750000000000     0          
O1       O      0.335235000000     0.952350000000     0.750000000000     0          
C3       C      0.383750000000     0.907800000000     0.750000000000     0          
H1       H      0.389360000000     0.934760000000     0.750000000000     0          
O1       O      0.335235000000     0.702350000000     0.500000000000     0          
C3       C      0.383750000000     0.657800000000     0.500000000000     0          
H1       H      0.389360000000     0.684760000000     0.500000000000     0          
O1       O      0.047650000000     0.500000000000     0.914765000000     0          
C3       C      0.092200000000     0.500000000000     0.866250000000     0          
H1       H      0.065240000000     0.500000000000     0.860640000000     0          
O1       O      0.047650000000     0.750000000000     0.664765000000     0          
C3       C      0.092200000000     0.750000000000     0.616250000000     0          
H1       H      0.065240000000     0.750000000000     0.610640000000     0          
O1       O      0.297650000000     0.500000000000     0.664765000000     0          
C3       C      0.342200000000     0.500000000000     0.616250000000     0          
H1       H      0.315240000000     0.500000000000     0.610640000000     0          
O1       O      0.297650000000     0.750000000000     0.914765000000     0          
C3       C      0.342200000000     0.750000000000     0.866250000000     0          
H1       H      0.315240000000     0.750000000000     0.860640000000     0          
O1       O      0.047650000000     0.500000000000     0.585235000000     0          
C3       C      0.092200000000     0.500000000000     0.633750000000     0          
H1       H      0.065240000000     0.500000000000     0.639360000000     0          
O1       O      0.047650000000     0.750000000000     0.835235000000     0          
C3       C      0.092200000000     0.750000000000     0.883750000000     0          
H1       H      0.065240000000     0.750000000000     0.889360000000     0          
O1       O      0.297650000000     0.500000000000     0.835235000000     0          
C3       C      0.342200000000     0.500000000000     0.883750000000     0          
H1       H      0.315240000000     0.500000000000     0.889360000000     0          
O1       O      0.297650000000     0.750000000000     0.585235000000     0          
C3       C      0.342200000000     0.750000000000     0.633750000000     0          
H1       H      0.315240000000     0.750000000000     0.639360000000     0          
O1       O      0.452350000000     0.500000000000     0.585235000000     0          
C3       C      0.407800000000     0.500000000000     0.633750000000     0          
H1       H      0.434760000000     0.500000000000     0.639360000000     0          
O1       O      0.452350000000     0.750000000000     0.835235000000     0          
C3       C      0.407800000000     0.750000000000     0.883750000000     0          
H1       H      0.434760000000     0.750000000000     0.889360000000     0          
O1       O      0.202350000000     0.500000000000     0.835235000000     0          
C3       C      0.157800000000     0.500000000000     0.883750000000     0          
H1       H      0.184760000000     0.500000000000     0.889360000000     0          
O1       O      0.202350000000     0.750000000000     0.585235000000     0          
C3       C      0.157800000000     0.750000000000     0.633750000000     0          
H1       H      0.184760000000     0.750000000000     0.639360000000     0          
O1       O      0.452350000000     0.500000000000     0.914765000000     0          
C3       C      0.407800000000     0.500000000000     0.866250000000     0          
H1       H      0.434760000000     0.500000000000     0.860640000000     0          
O1       O      0.452350000000     0.750000000000     0.664765000000     0          
C3       C      0.407800000000     0.750000000000     0.616250000000     0          
H1       H      0.434760000000     0.750000000000     0.610640000000     0          
O1       O      0.202350000000     0.500000000000     0.664765000000     0          
C3       C      0.157800000000     0.500000000000     0.616250000000     0          
H1       H      0.184760000000     0.500000000000     0.610640000000     0          
O1       O      0.202350000000     0.750000000000     0.914765000000     0          
C3       C      0.157800000000     0.750000000000     0.866250000000     0          
H1       H      0.184760000000     0.750000000000     0.860640000000     0          
O2       O      0.028050000000     0.721950000000     0.721950000000     0          
O2       O      0.278050000000     0.971950000000     0.721950000000     0          
O2       O      0.278050000000     0.721950000000     0.971950000000     0          
O2       O      0.221950000000     0.528050000000     0.721950000000     0          
O2       O      0.221950000000     0.778050000000     0.971950000000     0          
O2       O      0.471950000000     0.971950000000     0.528050000000     0          
O2       O      0.471950000000     0.721950000000     0.778050000000     0          
O2       O      0.028050000000     0.528050000000     0.528050000000     0          
O2       O      0.278050000000     0.778050000000     0.528050000000     0          
O2       O      0.471950000000     0.528050000000     0.528050000000     0          
O2       O      0.471950000000     0.778050000000     0.778050000000     0          
O2       O      0.221950000000     0.528050000000     0.778050000000     0          
O2       O      0.221950000000     0.778050000000     0.528050000000     0          
O2       O      0.028050000000     0.971950000000     0.528050000000     0          
O2       O      0.028050000000     0.721950000000     0.778050000000     0          
O2       O      0.278050000000     0.971950000000     0.778050000000     0          
O2       O      0.278050000000     0.721950000000     0.528050000000     0          
O2       O      0.471950000000     0.971950000000     0.971950000000     0          
O2       O      0.471950000000     0.721950000000     0.721950000000     0          
O2       O      0.221950000000     0.971950000000     0.721950000000     0          
O2       O      0.221950000000     0.721950000000     0.971950000000     0          
O2       O      0.028050000000     0.528050000000     0.971950000000     0          
O2       O      0.028050000000     0.778050000000     0.721950000000     0          
O2       O      0.278050000000     0.528050000000     0.721950000000     0          
C1       C      0.076800000000     0.500000000000     0.923200000000     0          
C1       C      0.076800000000     0.750000000000     0.673200000000     0          
C1       C      0.326800000000     0.500000000000     0.673200000000     0          
C1       C      0.326800000000     0.750000000000     0.923200000000     0          
C1       C      0.423200000000     0.500000000000     0.923200000000     0          
C1       C      0.423200000000     0.750000000000     0.673200000000     0          
C1       C      0.173200000000     0.500000000000     0.673200000000     0          
C1       C      0.173200000000     0.750000000000     0.923200000000     0          
C1       C      0.423200000000     0.500000000000     0.576800000000     0          
C1       C      0.423200000000     0.750000000000     0.826800000000     0          
C1       C      0.173200000000     0.500000000000     0.826800000000     0          
C1       C      0.173200000000     0.750000000000     0.576800000000     0          
C1       C      0.076800000000     0.500000000000     0.576800000000     0          
C1       C      0.076800000000     0.750000000000     0.826800000000     0          
C1       C      0.326800000000     0.500000000000     0.826800000000     0          
C1       C      0.326800000000     0.750000000000     0.576800000000     0          
C1       C      0.423200000000     0.576800000000     0.500000000000     0          
C1       C      0.423200000000     0.826800000000     0.750000000000     0          
C1       C      0.173200000000     0.576800000000     0.750000000000     0          
C1       C      0.173200000000     0.826800000000     0.500000000000     0          
C1       C      0.423200000000     0.923200000000     0.500000000000     0          
C1       C      0.423200000000     0.673200000000     0.750000000000     0          
C1       C      0.173200000000     0.923200000000     0.750000000000     0          
C1       C      0.173200000000     0.673200000000     0.500000000000     0          
C1       C      0.076800000000     0.923200000000     0.500000000000     0          
C1       C      0.076800000000     0.673200000000     0.750000000000     0          
C1       C      0.326800000000     0.923200000000     0.750000000000     0          
C1       C      0.326800000000     0.673200000000     0.500000000000     0          
C1       C      0.076800000000     0.576800000000     0.500000000000     0          
C1       C      0.076800000000     0.826800000000     0.750000000000     0          
C1       C      0.326800000000     0.576800000000     0.750000000000     0          
C1       C      0.326800000000     0.826800000000     0.500000000000     0          
C1       C      0.000000000000     0.923200000000     0.576800000000     0          
C1       C      0.000000000000     0.673200000000     0.826800000000     0          
C1       C      0.250000000000     0.923200000000     0.826800000000     0          
C1       C      0.250000000000     0.673200000000     0.576800000000     0          
C1       C      0.000000000000     0.923200000000     0.923200000000     0          
C1       C      0.000000000000     0.673200000000     0.673200000000     0          
C1       C      0.250000000000     0.923200000000     0.673200000000     0          
C1       C      0.250000000000     0.673200000000     0.923200000000     0          
C1       C      0.000000000000     0.576800000000     0.923200000000     0          
C1       C      0.000000000000     0.826800000000     0.673200000000     0          
C1       C      0.250000000000     0.576800000000     0.673200000000     0          
C1       C      0.250000000000     0.826800000000     0.923200000000     0          
C1       C      0.000000000000     0.576800000000     0.576800000000     0          
C1       C      0.000000000000     0.826800000000     0.826800000000     0          
C1       C      0.250000000000     0.576800000000     0.826800000000     0          
C1       C      0.250000000000     0.826800000000     0.576800000000     0          
C2       C      0.102500000000     0.500000000000     0.602500000000     0          
C2       C      0.102500000000     0.750000000000     0.852500000000     0          
C2       C      0.352500000000     0.500000000000     0.852500000000     0          
C2       C      0.352500000000     0.750000000000     0.602500000000     0          
C2       C      0.397500000000     0.500000000000     0.602500000000     0          
C2       C      0.397500000000     0.750000000000     0.852500000000     0          
C2       C      0.147500000000     0.500000000000     0.852500000000     0          
C2       C      0.147500000000     0.750000000000     0.602500000000     0          
C2       C      0.397500000000     0.500000000000     0.897500000000     0          
C2       C      0.397500000000     0.750000000000     0.647500000000     0          
C2       C      0.147500000000     0.500000000000     0.647500000000     0          
C2       C      0.147500000000     0.750000000000     0.897500000000     0          
C2       C      0.102500000000     0.500000000000     0.897500000000     0          
C2       C      0.102500000000     0.750000000000     0.647500000000     0          
C2       C      0.352500000000     0.500000000000     0.647500000000     0          
C2       C      0.352500000000     0.750000000000     0.897500000000     0          
C2       C      0.102500000000     0.602500000000     0.500000000000     0          
C2       C      0.102500000000     0.852500000000     0.750000000000     0          
C2       C      0.352500000000     0.602500000000     0.750000000000     0          
C2       C      0.352500000000     0.852500000000     0.500000000000     0          
C2       C      0.102500000000     0.897500000000     0.500000000000     0          
C2       C      0.102500000000     0.647500000000     0.750000000000     0          
C2       C      0.352500000000     0.897500000000     0.750000000000     0          
C2       C      0.352500000000     0.647500000000     0.500000000000     0          
C2       C      0.397500000000     0.897500000000     0.500000000000     0          
C2       C      0.397500000000     0.647500000000     0.750000000000     0          
C2       C      0.147500000000     0.897500000000     0.750000000000     0          
C2       C      0.147500000000     0.647500000000     0.500000000000     0          
C2       C      0.397500000000     0.602500000000     0.500000000000     0          
C2       C      0.397500000000     0.852500000000     0.750000000000     0          
C2       C      0.147500000000     0.602500000000     0.750000000000     0          
C2       C      0.147500000000     0.852500000000     0.500000000000     0          
C2       C      0.000000000000     0.602500000000     0.602500000000     0          
C2       C      0.000000000000     0.852500000000     0.852500000000     0          
C2       C      0.250000000000     0.602500000000     0.852500000000     0          
C2       C      0.250000000000     0.852500000000     0.602500000000     0          
C2       C      0.000000000000     0.602500000000     0.897500000000     0          
C2       C      0.000000000000     0.852500000000     0.647500000000     0          
C2       C      0.250000000000     0.602500000000     0.647500000000     0          
C2       C      0.250000000000     0.852500000000     0.897500000000     0          
C2       C      0.000000000000     0.897500000000     0.897500000000     0          
C2       C      0.000000000000     0.647500000000     0.647500000000     0          
C2       C      0.250000000000     0.897500000000     0.647500000000     0          
C2       C      0.250000000000     0.647500000000     0.897500000000     0          
C2       C      0.000000000000     0.897500000000     0.602500000000     0          
C2       C      0.000000000000     0.647500000000     0.852500000000     0          
C2       C      0.250000000000     0.897500000000     0.852500000000     0          
C2       C      0.250000000000     0.647500000000     0.602500000000     0          
Zr1      Zr     0.559945000000     0.000000000000     0.000000000000     0          
Zr1      Zr     0.559945000000     0.250000000000     0.250000000000     0          
Zr1      Zr     0.809945000000     0.000000000000     0.250000000000     0          
Zr1      Zr     0.809945000000     0.250000000000     0.000000000000     0          
Zr1      Zr     0.940055000000     0.000000000000     0.000000000000     0          
Zr1      Zr     0.940055000000     0.250000000000     0.250000000000     0          
Zr1      Zr     0.690055000000     0.000000000000     0.250000000000     0          
Zr1      Zr     0.690055000000     0.250000000000     0.000000000000     0          
Zr1      Zr     0.500000000000     0.059945000000     0.000000000000     0          
Zr1      Zr     0.500000000000     0.309945000000     0.250000000000     0          
Zr1      Zr     0.750000000000     0.059945000000     0.250000000000     0          
Zr1      Zr     0.750000000000     0.309945000000     0.000000000000     0          
Zr1      Zr     0.500000000000     0.440055000000     0.000000000000     0          
Zr1      Zr     0.500000000000     0.190055000000     0.250000000000     0          
Zr1      Zr     0.750000000000     0.440055000000     0.250000000000     0          
Zr1      Zr     0.750000000000     0.190055000000     0.000000000000     0          
Zr1      Zr     0.500000000000     0.000000000000     0.059945000000     0          
Zr1      Zr     0.500000000000     0.250000000000     0.309945000000     0          
Zr1      Zr     0.750000000000     0.000000000000     0.309945000000     0          
Zr1      Zr     0.750000000000     0.250000000000     0.059945000000     0          
Zr1      Zr     0.500000000000     0.000000000000     0.440055000000     0          
Zr1      Zr     0.500000000000     0.250000000000     0.190055000000     0          
Zr1      Zr     0.750000000000     0.000000000000     0.190055000000     0          
Zr1      Zr     0.750000000000     0.250000000000     0.440055000000     0          
O1       O      0.585235000000     0.000000000000     0.047650000000     0          
C3       C      0.633750000000     0.000000000000     0.092200000000     0          
H1       H      0.639360000000     0.000000000000     0.065240000000     0          
O1       O      0.585235000000     0.250000000000     0.297650000000     0          
C3       C      0.633750000000     0.250000000000     0.342200000000     0          
H1       H      0.639360000000     0.250000000000     0.315240000000     0          
O1       O      0.835235000000     0.000000000000     0.297650000000     0          
C3       C      0.883750000000     0.000000000000     0.342200000000     0          
H1       H      0.889360000000     0.000000000000     0.315240000000     0          
O1       O      0.835235000000     0.250000000000     0.047650000000     0          
C3       C      0.883750000000     0.250000000000     0.092200000000     0          
H1       H      0.889360000000     0.250000000000     0.065240000000     0          
O1       O      0.914765000000     0.000000000000     0.047650000000     0          
C3       C      0.866250000000     0.000000000000     0.092200000000     0          
H1       H      0.860640000000     0.000000000000     0.065240000000     0          
O1       O      0.914765000000     0.250000000000     0.297650000000     0          
C3       C      0.866250000000     0.250000000000     0.342200000000     0          
H1       H      0.860640000000     0.250000000000     0.315240000000     0          
O1       O      0.664765000000     0.000000000000     0.297650000000     0          
C3       C      0.616250000000     0.000000000000     0.342200000000     0          
H1       H      0.610640000000     0.000000000000     0.315240000000     0          
O1       O      0.664765000000     0.250000000000     0.047650000000     0          
C3       C      0.616250000000     0.250000000000     0.092200000000     0          
H1       H      0.610640000000     0.250000000000     0.065240000000     0          
O1       O      0.914765000000     0.000000000000     0.452350000000     0          
C3       C      0.866250000000     0.000000000000     0.407800000000     0          
H1       H      0.860640000000     0.000000000000     0.434760000000     0          
O1       O      0.914765000000     0.250000000000     0.202350000000     0          
C3       C      0.866250000000     0.250000000000     0.157800000000     0          
H1       H      0.860640000000     0.250000000000     0.184760000000     0          
O1       O      0.664765000000     0.000000000000     0.202350000000     0          
C3       C      0.616250000000     0.000000000000     0.157800000000     0          
H1       H      0.610640000000     0.000000000000     0.184760000000     0          
O1       O      0.664765000000     0.250000000000     0.452350000000     0          
C3       C      0.616250000000     0.250000000000     0.407800000000     0          
H1       H      0.610640000000     0.250000000000     0.434760000000     0          
O1       O      0.585235000000     0.000000000000     0.452350000000     0          
C3       C      0.633750000000     0.000000000000     0.407800000000     0          
H1       H      0.639360000000     0.000000000000     0.434760000000     0          
O1       O      0.585235000000     0.250000000000     0.202350000000     0          
C3       C      0.633750000000     0.250000000000     0.157800000000     0          
H1       H      0.639360000000     0.250000000000     0.184760000000     0          
O1       O      0.835235000000     0.000000000000     0.202350000000     0          
C3       C      0.883750000000     0.000000000000     0.157800000000     0          
H1       H      0.889360000000     0.000000000000     0.184760000000     0          
O1       O      0.835235000000     0.250000000000     0.452350000000     0          
C3       C      0.883750000000     0.250000000000     0.407800000000     0          
H1       H      0.889360000000     0.250000000000     0.434760000000     0          
O1       O      0.547650000000     0.085235000000     0.000000000000     0          
C3       C      0.592200000000     0.133750000000     0.000000000000     0          
H1       H      0.565240000000     0.139360000000     0.000000000000     0          
O1       O      0.547650000000     0.335235000000     0.250000000000     0          
C3       C      0.592200000000     0.383750000000     0.250000000000     0          
H1       H      0.565240000000     0.389360000000     0.250000000000     0          
O1       O      0.797650000000     0.085235000000     0.250000000000     0          
C3       C      0.842200000000     0.133750000000     0.250000000000     0          
H1       H      0.815240000000     0.139360000000     0.250000000000     0          
O1       O      0.797650000000     0.335235000000     0.000000000000     0          
C3       C      0.842200000000     0.383750000000     0.000000000000     0          
H1       H      0.815240000000     0.389360000000     0.000000000000     0          
O1       O      0.547650000000     0.414765000000     0.000000000000     0          
C3       C      0.592200000000     0.366250000000     0.000000000000     0          
H1       H      0.565240000000     0.360640000000     0.000000000000     0          
O1       O      0.547650000000     0.164765000000     0.250000000000     0          
C3       C      0.592200000000     0.116250000000     0.250000000000     0          
H1       H      0.565240000000     0.110640000000     0.250000000000     0          
O1       O      0.797650000000     0.414765000000     0.250000000000     0          
C3       C      0.842200000000     0.366250000000     0.250000000000     0          
H1       H      0.815240000000     0.360640000000     0.250000000000     0          
O1       O      0.797650000000     0.164765000000     0.000000000000     0          
C3       C      0.842200000000     0.116250000000     0.000000000000     0          
H1       H      0.815240000000     0.110640000000     0.000000000000     0          
O1       O      0.952350000000     0.414765000000     0.000000000000     0          
C3       C      0.907800000000     0.366250000000     0.000000000000     0          
H1       H      0.934760000000     0.360640000000     0.000000000000     0          
O1       O      0.952350000000     0.164765000000     0.250000000000     0          
C3       C      0.907800000000     0.116250000000     0.250000000000     0          
H1       H      0.934760000000     0.110640000000     0.250000000000     0          
O1       O      0.702350000000     0.414765000000     0.250000000000     0          
C3       C      0.657800000000     0.366250000000     0.250000000000     0          
H1       H      0.684760000000     0.360640000000     0.250000000000     0          
O1       O      0.702350000000     0.164765000000     0.000000000000     0          
C3       C      0.657800000000     0.116250000000     0.000000000000     0          
H1       H      0.684760000000     0.110640000000     0.000000000000     0          
O1       O      0.952350000000     0.085235000000     0.000000000000     0          
C3       C      0.907800000000     0.133750000000     0.000000000000     0          
H1       H      0.934760000000     0.139360000000     0.000000000000     0          
O1       O      0.952350000000     0.335235000000     0.250000000000     0          
C3       C      0.907800000000     0.383750000000     0.250000000000     0          
H1       H      0.934760000000     0.389360000000     0.250000000000     0          
O1       O      0.702350000000     0.085235000000     0.250000000000     0          
C3       C      0.657800000000     0.133750000000     0.250000000000     0          
H1       H      0.684760000000     0.139360000000     0.250000000000     0          
O1       O      0.702350000000     0.335235000000     0.000000000000     0          
C3       C      0.657800000000     0.383750000000     0.000000000000     0          
H1       H      0.684760000000     0.389360000000     0.000000000000     0          
O1       O      0.500000000000     0.047650000000     0.085235000000     0          
C3       C      0.500000000000     0.092200000000     0.133750000000     0          
H1       H      0.500000000000     0.065240000000     0.139360000000     0          
O1       O      0.500000000000     0.297650000000     0.335235000000     0          
C3       C      0.500000000000     0.342200000000     0.383750000000     0          
H1       H      0.500000000000     0.315240000000     0.389360000000     0          
O1       O      0.750000000000     0.047650000000     0.335235000000     0          
C3       C      0.750000000000     0.092200000000     0.383750000000     0          
H1       H      0.750000000000     0.065240000000     0.389360000000     0          
O1       O      0.750000000000     0.297650000000     0.085235000000     0          
C3       C      0.750000000000     0.342200000000     0.133750000000     0          
H1       H      0.750000000000     0.315240000000     0.139360000000     0          
O1       O      0.500000000000     0.047650000000     0.414765000000     0          
C3       C      0.500000000000     0.092200000000     0.366250000000     0          
H1       H      0.500000000000     0.065240000000     0.360640000000     0          
O1       O      0.500000000000     0.297650000000     0.164765000000     0          
C3       C      0.500000000000     0.342200000000     0.116250000000     0          
H1       H      0.500000000000     0.315240000000     0.110640000000     0          
O1       O      0.750000000000     0.047650000000     0.164765000000     0          
C3       C      0.750000000000     0.092200000000     0.116250000000     0          
H1       H      0.750000000000     0.065240000000     0.110640000000     0          
O1       O      0.750000000000     0.297650000000     0.414765000000     0          
C3       C      0.750000000000     0.342200000000     0.366250000000     0          
H1       H      0.750000000000     0.315240000000     0.360640000000     0          
O1       O      0.500000000000     0.452350000000     0.414765000000     0          
C3       C      0.500000000000     0.407800000000     0.366250000000     0          
H1       H      0.500000000000     0.434760000000     0.360640000000     0          
O1       O      0.500000000000     0.202350000000     0.164765000000     0          
C3       C      0.500000000000     0.157800000000     0.116250000000     0          
H1       H      0.500000000000     0.184760000000     0.110640000000     0          
O1       O      0.750000000000     0.452350000000     0.164765000000     0          
C3       C      0.750000000000     0.407800000000     0.116250000000     0          
H1       H      0.750000000000     0.434760000000     0.110640000000     0          
O1       O      0.750000000000     0.202350000000     0.414765000000     0          
C3       C      0.750000000000     0.157800000000     0.366250000000     0          
H1       H      0.750000000000     0.184760000000     0.360640000000     0          
O1       O      0.500000000000     0.452350000000     0.085235000000     0          
C3       C      0.500000000000     0.407800000000     0.133750000000     0          
H1       H      0.500000000000     0.434760000000     0.139360000000     0          
O1       O      0.500000000000     0.202350000000     0.335235000000     0          
C3       C      0.500000000000     0.157800000000     0.383750000000     0          
H1       H      0.500000000000     0.184760000000     0.389360000000     0          
O1       O      0.750000000000     0.452350000000     0.335235000000     0          
C3       C      0.750000000000     0.407800000000     0.383750000000     0          
H1       H      0.750000000000     0.434760000000     0.389360000000     0          
O1       O      0.750000000000     0.202350000000     0.085235000000     0          
C3       C      0.750000000000     0.157800000000     0.133750000000     0          
H1       H      0.750000000000     0.184760000000     0.139360000000     0          
O1       O      0.500000000000     0.085235000000     0.452350000000     0          
C3       C      0.500000000000     0.133750000000     0.407800000000     0          
H1       H      0.500000000000     0.139360000000     0.434760000000     0          
O1       O      0.500000000000     0.335235000000     0.202350000000     0          
C3       C      0.500000000000     0.383750000000     0.157800000000     0          
H1       H      0.500000000000     0.389360000000     0.184760000000     0          
O1       O      0.750000000000     0.085235000000     0.202350000000     0          
C3       C      0.750000000000     0.133750000000     0.157800000000     0          
H1       H      0.750000000000     0.139360000000     0.184760000000     0          
O1       O      0.750000000000     0.335235000000     0.452350000000     0          
C3       C      0.750000000000     0.383750000000     0.407800000000     0          
H1       H      0.750000000000     0.389360000000     0.434760000000     0          
O1       O      0.500000000000     0.414765000000     0.452350000000     0          
C3       C      0.500000000000     0.366250000000     0.407800000000     0          
H1       H      0.500000000000     0.360640000000     0.434760000000     0          
O1       O      0.500000000000     0.164765000000     0.202350000000     0          
C3       C      0.500000000000     0.116250000000     0.157800000000     0          
H1       H      0.500000000000     0.110640000000     0.184760000000     0          
O1       O      0.750000000000     0.414765000000     0.202350000000     0          
C3       C      0.750000000000     0.366250000000     0.157800000000     0          
H1       H      0.750000000000     0.360640000000     0.184760000000     0          
O1       O      0.750000000000     0.164765000000     0.452350000000     0          
C3       C      0.750000000000     0.116250000000     0.407800000000     0          
H1       H      0.750000000000     0.110640000000     0.434760000000     0          
O1       O      0.500000000000     0.414765000000     0.047650000000     0          
C3       C      0.500000000000     0.366250000000     0.092200000000     0          
H1       H      0.500000000000     0.360640000000     0.065240000000     0          
O1       O      0.500000000000     0.164765000000     0.297650000000     0          
C3       C      0.500000000000     0.116250000000     0.342200000000     0          
H1       H      0.500000000000     0.110640000000     0.315240000000     0          
O1       O      0.750000000000     0.414765000000     0.297650000000     0          
C3       C      0.750000000000     0.366250000000     0.342200000000     0          
H1       H      0.750000000000     0.360640000000     0.315240000000     0          
O1       O      0.750000000000     0.164765000000     0.047650000000     0          
C3       C      0.750000000000     0.116250000000     0.092200000000     0          
H1       H      0.750000000000     0.110640000000     0.065240000000     0          
O1       O      0.500000000000     0.085235000000     0.047650000000     0          
C3       C      0.500000000000     0.133750000000     0.092200000000     0          
H1       H      0.500000000000     0.139360000000     0.065240000000     0          
O1       O      0.500000000000     0.335235000000     0.297650000000     0          
C3       C      0.500000000000     0.383750000000     0.342200000000     0          
H1       H      0.500000000000     0.389360000000     0.315240000000     0          
O1       O      0.750000000000     0.085235000000     0.297650000000     0          
C3       C      0.750000000000     0.133750000000     0.342200000000     0          
H1       H      0.750000000000     0.139360000000     0.315240000000     0          
O1       O      0.750000000000     0.335235000000     0.047650000000     0          
C3       C      0.750000000000     0.383750000000     0.092200000000     0          
H1       H      0.750000000000     0.389360000000     0.065240000000     0          
O1       O      0.585235000000     0.047650000000     0.000000000000     0          
C3       C      0.633750000000     0.092200000000     0.000000000000     0          
H1       H      0.639360000000     0.065240000000     0.000000000000     0          
O1       O      0.585235000000     0.297650000000     0.250000000000     0          
C3       C      0.633750000000     0.342200000000     0.250000000000     0          
H1       H      0.639360000000     0.315240000000     0.250000000000     0          
O1       O      0.835235000000     0.047650000000     0.250000000000     0          
C3       C      0.883750000000     0.092200000000     0.250000000000     0          
H1       H      0.889360000000     0.065240000000     0.250000000000     0          
O1       O      0.835235000000     0.297650000000     0.000000000000     0          
C3       C      0.883750000000     0.342200000000     0.000000000000     0          
H1       H      0.889360000000     0.315240000000     0.000000000000     0          
O1       O      0.914765000000     0.047650000000     0.000000000000     0          
C3       C      0.866250000000     0.092200000000     0.000000000000     0          
H1       H      0.860640000000     0.065240000000     0.000000000000     0          
O1       O      0.914765000000     0.297650000000     0.250000000000     0          
C3       C      0.866250000000     0.342200000000     0.250000000000     0          
H1       H      0.860640000000     0.315240000000     0.250000000000     0          
O1       O      0.664765000000     0.047650000000     0.250000000000     0          
C3       C      0.616250000000     0.092200000000     0.250000000000     0          
H1       H      0.610640000000     0.065240000000     0.250000000000     0          
O1       O      0.664765000000     0.297650000000     0.000000000000     0          
C3       C      0.616250000000     0.342200000000     0.000000000000     0          
H1       H      0.610640000000     0.315240000000     0.000000000000     0          
O1       O      0.914765000000     0.452350000000     0.000000000000     0          
C3       C      0.866250000000     0.407800000000     0.000000000000     0          
H1       H      0.860640000000     0.434760000000     0.000000000000     0          
O1       O      0.914765000000     0.202350000000     0.250000000000     0          
C3       C      0.866250000000     0.157800000000     0.250000000000     0          
H1       H      0.860640000000     0.184760000000     0.250000000000     0          
O1       O      0.664765000000     0.452350000000     0.250000000000     0          
C3       C      0.616250000000     0.407800000000     0.250000000000     0          
H1       H      0.610640000000     0.434760000000     0.250000000000     0          
O1       O      0.664765000000     0.202350000000     0.000000000000     0          
C3       C      0.616250000000     0.157800000000     0.000000000000     0          
H1       H      0.610640000000     0.184760000000     0.000000000000     0          
O1       O      0.585235000000     0.452350000000     0.000000000000     0          
C3       C      0.633750000000     0.407800000000     0.000000000000     0          
H1       H      0.639360000000     0.434760000000     0.000000000000     0          
O1       O      0.585235000000     0.202350000000     0.250000000000     0          
C3       C      0.633750000000     0.157800000000     0.250000000000     0          
H1       H      0.639360000000     0.184760000000     0.250000000000     0          
O1       O      0.835235000000     0.452350000000     0.250000000000     0          
C3       C      0.883750000000     0.407800000000     0.250000000000     0          
H1       H      0.889360000000     0.434760000000     0.250000000000     0          
O1       O      0.835235000000     0.202350000000     0.000000000000     0          
C3       C      0.883750000000     0.157800000000     0.000000000000     0          
H1       H      0.889360000000     0.184760000000     0.000000000000     0          
O1       O      0.547650000000     0.000000000000     0.414765000000     0          
C3       C      0.592200000000     0.000000000000     0.366250000000     0          
H1       H      0.565240000000     0.000000000000     0.360640000000     0          
O1       O      0.547650000000     0.250000000000     0.164765000000     0          
C3       C      0.592200000000     0.250000000000     0.116250000000     0          
H1       H      0.565240000000     0.250000000000     0.110640000000     0          
O1       O      0.797650000000     0.000000000000     0.164765000000     0          
C3       C      0.842200000000     0.000000000000     0.116250000000     0          
H1       H      0.815240000000     0.000000000000     0.110640000000     0          
O1       O      0.797650000000     0.250000000000     0.414765000000     0          
C3       C      0.842200000000     0.250000000000     0.366250000000     0          
H1       H      0.815240000000     0.250000000000     0.360640000000     0          
O1       O      0.547650000000     0.000000000000     0.085235000000     0          
C3       C      0.592200000000     0.000000000000     0.133750000000     0          
H1       H      0.565240000000     0.000000000000     0.139360000000     0          
O1       O      0.547650000000     0.250000000000     0.335235000000     0          
C3       C      0.592200000000     0.250000000000     0.383750000000     0          
H1       H      0.565240000000     0.250000000000     0.389360000000     0          
O1       O      0.797650000000     0.000000000000     0.335235000000     0          
C3       C      0.842200000000     0.000000000000     0.383750000000     0          
H1       H      0.815240000000     0.000000000000     0.389360000000     0          
O1       O      0.797650000000     0.250000000000     0.085235000000     0          
C3       C      0.842200000000     0.250000000000     0.133750000000     0          
H1       H      0.815240000000     0.250000000000     0.139360000000     0          
O1       O      0.952350000000     0.000000000000     0.085235000000     0          
C3       C      0.907800000000     0.000000000000     0.133750000000     0          
H1       H      0.934760000000     0.000000000000     0.139360000000     0          
O1       O      0.952350000000     0.250000000000     0.335235000000     0          
C3       C      0.907800000000     0.250000000000     0.383750000000     0          
H1       H      0.934760000000     0.250000000000     0.389360000000     0          
O1       O      0.702350000000     0.000000000000     0.335235000000     0          
C3       C      0.657800000000     0.000000000000     0.383750000000     0          
H1       H      0.684760000000     0.000000000000     0.389360000000     0          
O1       O      0.702350000000     0.250000000000     0.085235000000     0          
C3       C      0.657800000000     0.250000000000     0.133750000000     0          
H1       H      0.684760000000     0.250000000000     0.139360000000     0          
O1       O      0.952350000000     0.000000000000     0.414765000000     0          
C3       C      0.907800000000     0.000000000000     0.366250000000     0          
H1       H      0.934760000000     0.000000000000     0.360640000000     0          
O1       O      0.952350000000     0.250000000000     0.164765000000     0          
C3       C      0.907800000000     0.250000000000     0.116250000000     0          
H1       H      0.934760000000     0.250000000000     0.110640000000     0          
O1       O      0.702350000000     0.000000000000     0.164765000000     0          
C3       C      0.657800000000     0.000000000000     0.116250000000     0          
H1       H      0.684760000000     0.000000000000     0.110640000000     0          
O1       O      0.702350000000     0.250000000000     0.414765000000     0          
C3       C      0.657800000000     0.250000000000     0.366250000000     0          
H1       H      0.684760000000     0.250000000000     0.360640000000     0          
O2       O      0.528050000000     0.221950000000     0.221950000000     0          
O2       O      0.778050000000     0.471950000000     0.221950000000     0          
O2       O      0.778050000000     0.221950000000     0.471950000000     0          
O2       O      0.721950000000     0.028050000000     0.221950000000     0          
O2       O      0.721950000000     0.278050000000     0.471950000000     0          
O2       O      0.971950000000     0.471950000000     0.028050000000     0          
O2       O      0.971950000000     0.221950000000     0.278050000000     0          
O2       O      0.528050000000     0.028050000000     0.028050000000     0          
O2       O      0.778050000000     0.278050000000     0.028050000000     0          
O2       O      0.971950000000     0.028050000000     0.028050000000     0          
O2       O      0.971950000000     0.278050000000     0.278050000000     0          
O2       O      0.721950000000     0.028050000000     0.278050000000     0          
O2       O      0.721950000000     0.278050000000     0.028050000000     0          
O2       O      0.528050000000     0.471950000000     0.028050000000     0          
O2       O      0.528050000000     0.221950000000     0.278050000000     0          
O2       O      0.778050000000     0.471950000000     0.278050000000     0          
O2       O      0.778050000000     0.221950000000     0.028050000000     0          
O2       O      0.971950000000     0.471950000000     0.471950000000     0          
O2       O      0.971950000000     0.221950000000     0.221950000000     0          
O2       O      0.721950000000     0.471950000000     0.221950000000     0          
O2       O      0.721950000000     0.221950000000     0.471950000000     0          
O2       O      0.528050000000     0.028050000000     0.471950000000     0          
O2       O      0.528050000000     0.278050000000     0.221950000000     0          
O2       O      0.778050000000     0.028050000000     0.221950000000     0          
C1       C      0.576800000000     0.000000000000     0.423200000000     0          
C1       C      0.576800000000     0.250000000000     0.173200000000     0          
C1       C      0.826800000000     0.000000000000     0.173200000000     0          
C1       C      0.826800000000     0.250000000000     0.423200000000     0          
C1       C      0.923200000000     0.000000000000     0.423200000000     0          
C1       C      0.923200000000     0.250000000000     0.173200000000     0          
C1       C      0.673200000000     0.000000000000     0.173200000000     0          
C1       C      0.673200000000     0.250000000000     0.423200000000     0          
C1       C      0.923200000000     0.000000000000     0.076800000000     0          
C1       C      0.923200000000     0.250000000000     0.326800000000     0          
C1       C      0.673200000000     0.000000000000     0.326800000000     0          
C1       C      0.673200000000     0.250000000000     0.076800000000     0          
C1       C      0.576800000000     0.000000000000     0.076800000000     0          
C1       C      0.576800000000     0.250000000000     0.326800000000     0          
C1       C      0.826800000000     0.000000000000     0.326800000000     0          
C1       C      0.826800000000     0.250000000000     0.076800000000     0          
C1       C      0.923200000000     0.076800000000     0.000000000000     0          
C1       C      0.923200000000     0.326800000000     0.250000000000     0          
C1       C      0.673200000000     0.076800000000     0.250000000000     0          
C1       C      0.673200000000     0.326800000000     0.000000000000     0          
C1       C      0.923200000000     0.423200000000     0.000000000000     0          
C1       C      0.923200000000     0.173200000000     0.250000000000     0          
C1       C      0.673200000000     0.423200000000     0.250000000000     0          
C1       C      0.673200000000     0.173200000000     0.000000000000     0          
C1       C      0.576800000000     0.423200000000     0.000000000000     0          
C1       C      0.576800000000     0.173200000000     0.250000000000     0          
C1       C      0.826800000000     0.423200000000     0.250000000000     0          
C1       C      0.826800000000     0.173200000000     0.000000000000     0          
C1       C      0.576800000000     0.076800000000     0.000000000000     0          
C1       C      0.576800000000     0.326800000000     0.250000000000     0          
C1       C      0.826800000000     0.076800000000     0.250000000000     0          
C1       C      0.826800000000     0.326800000000     0.000000000000     0          
C1       C      0.500000000000     0.423200000000     0.076800000000     0          
C1       C      0.500000000000     0.173200000000     0.326800000000     0          
C1       C      0.750000000000     0.423200000000     0.326800000000     0          
C1       C      0.750000000000     0.173200000000     0.076800000000     0          
C1       C      0.500000000000     0.423200000000     0.423200000000     0          
C1       C      0.500000000000     0.173200000000     0.173200000000     0          
C1       C      0.750000000000     0.423200000000     0.173200000000     0          
C1       C      0.750000000000     0.173200000000     0.423200000000     0          
C1       C      0.500000000000     0.076800000000     0.423200000000     0          
C1       C      0.500000000000     0.326800000000     0.173200000000     0          
C1       C      0.750000000000     0.076800000000     0.173200000000     0          
C1       C      0.750000000000     0.326800000000     0.423200000000     0          
C1       C      0.500000000000     0.076800000000     0.076800000000     0          
C1       C      0.500000000000     0.326800000000     0.326800000000     0          
C1       C      0.750000000000     0.076800000000     0.326800000000     0          
C1       C      0.750000000000     0.326800000000     0.076800000000     0          
C2       C      0.602500000000     0.000000000000     0.102500000000     0          
C2       C      0.602500000000     0.250000000000     0.352500000000     0          
C2       C      0.852500000000     0.000000000000     0.352500000000     0          
C2       C      0.852500000000     0.250000000000     0.102500000000     0          
C2       C      0.897500000000     0.000000000000     0.102500000000     0          
C2       C      0.897500000000     0.250000000000     0.352500000000     0          
C2       C      0.647500000000     0.000000000000     0.352500000000     0          
C2       C      0.647500000000     0.250000000000     0.102500000000     0          
C2       C      0.897500000000     0.000000000000     0.397500000000     0          
C2       C      0.897500000000     0.250000000000     0.147500000000     0          
C2       C      0.647500000000     0.000000000000     0.147500000000     0          
C2       C      0.647500000000     0.250000000000     0.397500000000     0          
C2       C      0.602500000000     0.000000000000     0.397500000000     0          
C2       C      0.602500000000     0.250000000000     0.147500000000     0          
C2       C      0.852500000000     0.000000000000     0.147500000000     0          
C2       C      0.852500000000     0.250000000000     0.397500000000     0          
C2       C      0.602500000000     0.102500000000     0.000000000000     0          
C2       C      0.602500000000     0.352500000000     0.250000000000     0          
C2       C      0.852500000000     0.102500000000     0.250000000000     0          
C2       C      0.852500000000     0.352500000000     0.000000000000     0          
C2       C      0.602500000000     0.397500000000     0.000000000000     0          
C2       C      0.602500000000     0.147500000000     0.250000000000     0          
C2       C      0.852500000000     0.397500000000     0.250000000000     0          
C2       C      0.852500000000     0.147500000000     0.000000000000     0          
C2       C      0.897500000000     0.397500000000     0.000000000000     0          
C2       C      0.897500000000     0.147500000000     0.250000000000     0          
C2       C      0.647500000000     0.397500000000     0.250000000000     0          
C2       C      0.647500000000     0.147500000000     0.000000000000     0          
C2       C      0.897500000000     0.102500000000     0.000000000000     0          
C2       C      0.897500000000     0.352500000000     0.250000000000     0          
C2       C      0.647500000000     0.102500000000     0.250000000000     0          
C2       C      0.647500000000     0.352500000000     0.000000000000     0          
C2       C      0.500000000000     0.102500000000     0.102500000000     0          
C2       C      0.500000000000     0.352500000000     0.352500000000     0          
C2       C      0.750000000000     0.102500000000     0.352500000000     0          
C2       C      0.750000000000     0.352500000000     0.102500000000     0          
C2       C      0.500000000000     0.102500000000     0.397500000000     0          
C2       C      0.500000000000     0.352500000000     0.147500000000     0          
C2       C      0.750000000000     0.102500000000     0.147500000000     0          
C2       C      0.750000000000     0.352500000000     0.397500000000     0          
C2       C      0.500000000000     0.397500000000     0.397500000000     0          
C2       C      0.500000000000     0.147500000000     0.147500000000     0          
C2       C      0.750000000000     0.397500000000     0.147500000000     0          
C2       C      0.750000000000     0.147500000000     0.397500000000     0          
C2       C      0.500000000000     0.397500000000     0.102500000000     0          
C2       C      0.500000000000     0.147500000000     0.352500000000     0          
C2       C      0.750000000000     0.397500000000     0.352500000000     0          
C2       C      0.750000000000     0.147500000000     0.102500000000     0          
Zr1      Zr     0.559945000000     0.000000000000     0.500000000000     0          
Zr1      Zr     0.559945000000     0.250000000000     0.750000000000     0          
Zr1      Zr     0.809945000000     0.000000000000     0.750000000000     0          
Zr1      Zr     0.809945000000     0.250000000000     0.500000000000     0          
Zr1      Zr     0.940055000000     0.000000000000     0.500000000000     0          
Zr1      Zr     0.940055000000     0.250000000000     0.750000000000     0          
Zr1      Zr     0.690055000000     0.000000000000     0.750000000000     0          
Zr1      Zr     0.690055000000     0.250000000000     0.500000000000     0          
Zr1      Zr     0.500000000000     0.059945000000     0.500000000000     0          
Zr1      Zr     0.500000000000     0.309945000000     0.750000000000     0          
Zr1      Zr     0.750000000000     0.059945000000     0.750000000000     0          
Zr1      Zr     0.750000000000     0.309945000000     0.500000000000     0          
Zr1      Zr     0.500000000000     0.440055000000     0.500000000000     0          
Zr1      Zr     0.500000000000     0.190055000000     0.750000000000     0          
Zr1      Zr     0.750000000000     0.440055000000     0.750000000000     0          
Zr1      Zr     0.750000000000     0.190055000000     0.500000000000     0          
Zr1      Zr     0.500000000000     0.000000000000     0.559945000000     0          
Zr1      Zr     0.500000000000     0.250000000000     0.809945000000     0          
Zr1      Zr     0.750000000000     0.000000000000     0.809945000000     0          
Zr1      Zr     0.750000000000     0.250000000000     0.559945000000     0          
Zr1      Zr     0.500000000000     0.000000000000     0.940055000000     0          
Zr1      Zr     0.500000000000     0.250000000000     0.690055000000     0          
Zr1      Zr     0.750000000000     0.000000000000     0.690055000000     0          
Zr1      Zr     0.750000000000     0.250000000000     0.940055000000     0          
O1       O      0.585235000000     0.000000000000     0.547650000000     0          
C3       C      0.633750000000     0.000000000000     0.592200000000     0          
H1       H      0.639360000000     0.000000000000     0.565240000000     0          
O1       O      0.585235000000     0.250000000000     0.797650000000     0          
C3       C      0.633750000000     0.250000000000     0.842200000000     0          
H1       H      0.639360000000     0.250000000000     0.815240000000     0          
O1       O      0.835235000000     0.000000000000     0.797650000000     0          
C3       C      0.883750000000     0.000000000000     0.842200000000     0          
H1       H      0.889360000000     0.000000000000     0.815240000000     0          
O1       O      0.835235000000     0.250000000000     0.547650000000     0          
C3       C      0.883750000000     0.250000000000     0.592200000000     0          
H1       H      0.889360000000     0.250000000000     0.565240000000     0          
O1       O      0.914765000000     0.000000000000     0.547650000000     0          
C3       C      0.866250000000     0.000000000000     0.592200000000     0          
H1       H      0.860640000000     0.000000000000     0.565240000000     0          
O1       O      0.914765000000     0.250000000000     0.797650000000     0          
C3       C      0.866250000000     0.250000000000     0.842200000000     0          
H1       H      0.860640000000     0.250000000000     0.815240000000     0          
O1       O      0.664765000000     0.000000000000     0.797650000000     0          
C3       C      0.616250000000     0.000000000000     0.842200000000     0          
H1       H      0.610640000000     0.000000000000     0.815240000000     0          
O1       O      0.664765000000     0.250000000000     0.547650000000     0          
C3       C      0.616250000000     0.250000000000     0.592200000000     0          
H1       H      0.610640000000     0.250000000000     0.565240000000     0          
O1       O      0.914765000000     0.000000000000     0.952350000000     0          
C3       C      0.866250000000     0.000000000000     0.907800000000     0          
H1       H      0.860640000000     0.000000000000     0.934760000000     0          
O1       O      0.914765000000     0.250000000000     0.702350000000     0          
C3       C      0.866250000000     0.250000000000     0.657800000000     0          
H1       H      0.860640000000     0.250000000000     0.684760000000     0          
O1       O      0.664765000000     0.000000000000     0.702350000000     0          
C3       C      0.616250000000     0.000000000000     0.657800000000     0          
H1       H      0.610640000000     0.000000000000     0.684760000000     0          
O1       O      0.664765000000     0.250000000000     0.952350000000     0          
C3       C      0.616250000000     0.250000000000     0.907800000000     0          
H1       H      0.610640000000     0.250000000000     0.934760000000     0          
O1       O      0.585235000000     0.000000000000     0.952350000000     0          
C3       C      0.633750000000     0.000000000000     0.907800000000     0          
H1       H      0.639360000000     0.000000000000     0.934760000000     0          
O1       O      0.585235000000     0.250000000000     0.702350000000     0          
C3       C      0.633750000000     0.250000000000     0.657800000000     0          
H1       H      0.639360000000     0.250000000000     0.684760000000     0          
O1       O      0.835235000000     0.000000000000     0.702350000000     0          
C3       C      0.883750000000     0.000000000000     0.657800000000     0          
H1       H      0.889360000000     0.000000000000     0.684760000000     0          
O1       O      0.835235000000     0.250000000000     0.952350000000     0          
C3       C      0.883750000000     0.250000000000     0.907800000000     0          
H1       H      0.889360000000     0.250000000000     0.934760000000     0          
O1       O      0.547650000000     0.085235000000     0.500000000000     0          
C3       C      0.592200000000     0.133750000000     0.500000000000     0          
H1       H      0.565240000000     0.139360000000     0.500000000000     0          
O1       O      0.547650000000     0.335235000000     0.750000000000     0          
C3       C      0.592200000000     0.383750000000     0.750000000000     0          
H1       H      0.565240000000     0.389360000000     0.750000000000     0          
O1       O      0.797650000000     0.085235000000     0.750000000000     0          
C3       C      0.842200000000     0.133750000000     0.750000000000     0          
H1       H      0.815240000000     0.139360000000     0.750000000000     0          
O1       O      0.797650000000     0.335235000000     0.500000000000     0          
C3       C      0.842200000000     0.383750000000     0.500000000000     0          
H1       H      0.815240000000     0.389360000000     0.500000000000     0          
O1       O      0.547650000000     0.414765000000     0.500000000000     0          
C3       C      0.592200000000     0.366250000000     0.500000000000     0          
H1       H      0.565240000000     0.360640000000     0.500000000000     0          
O1       O      0.547650000000     0.164765000000     0.750000000000     0          
C3       C      0.592200000000     0.116250000000     0.750000000000     0          
H1       H      0.565240000000     0.110640000000     0.750000000000     0          
O1       O      0.797650000000     0.414765000000     0.750000000000     0          
C3       C      0.842200000000     0.366250000000     0.750000000000     0          
H1       H      0.815240000000     0.360640000000     0.750000000000     0          
O1       O      0.797650000000     0.164765000000     0.500000000000     0          
C3       C      0.842200000000     0.116250000000     0.500000000000     0          
H1       H      0.815240000000     0.110640000000     0.500000000000     0          
O1       O      0.952350000000     0.414765000000     0.500000000000     0          
C3       C      0.907800000000     0.366250000000     0.500000000000     0          
H1       H      0.934760000000     0.360640000000     0.500000000000     0          
O1       O      0.952350000000     0.164765000000     0.750000000000     0          
C3       C      0.907800000000     0.116250000000     0.750000000000     0          
H1       H      0.934760000000     0.110640000000     0.750000000000     0          
O1       O      0.702350000000     0.414765000000     0.750000000000     0          
C3       C      0.657800000000     0.366250000000     0.750000000000     0          
H1       H      0.684760000000     0.360640000000     0.750000000000     0          
O1       O      0.702350000000     0.164765000000     0.500000000000     0          
C3       C      0.657800000000     0.116250000000     0.500000000000     0          
H1       H      0.684760000000     0.110640000000     0.500000000000     0          
O1       O      0.952350000000     0.085235000000     0.500000000000     0          
C3       C      0.907800000000     0.133750000000     0.500000000000     0          
H1       H      0.934760000000     0.139360000000     0.500000000000     0          
O1       O      0.952350000000     0.335235000000     0.750000000000     0          
C3       C      0.907800000000     0.383750000000     0.750000000000     0          
H1       H      0.934760000000     0.389360000000     0.750000000000     0          
O1       O      0.702350000000     0.085235000000     0.750000000000     0          
C3       C      0.657800000000     0.133750000000     0.750000000000     0          
H1       H      0.684760000000     0.139360000000     0.750000000000     0          
O1       O      0.702350000000     0.335235000000     0.500000000000     0          
C3       C      0.657800000000     0.383750000000     0.500000000000     0          
H1       H      0.684760000000     0.389360000000     0.500000000000     0          
O1       O      0.500000000000     0.047650000000     0.585235000000     0          
C3       C      0.500000000000     0.092200000000     0.633750000000     0          
H1       H      0.500000000000     0.065240000000     0.639360000000     0          
O1       O      0.500000000000     0.297650000000     0.835235000000     0          
C3       C      0.500000000000     0.342200000000     0.883750000000     0          
H1       H      0.500000000000     0.315240000000     0.889360000000     0          
O1       O      0.750000000000     0.047650000000     0.835235000000     0          
C3       C      0.750000000000     0.092200000000     0.883750000000     0          
H1       H      0.750000000000     0.065240000000     0.889360000000     0          
O1       O      0.750000000000     0.297650000000     0.585235000000     0          
C3       C      0.750000000000     0.342200000000     0.633750000000     0          
H1       H      0.750000000000     0.315240000000     0.639360000000     0          
O1       O      0.500000000000     0.047650000000     0.914765000000     0          
C3       C      0.500000000000     0.092200000000     0.866250000000     0          
H1       H      0.500000000000     0.065240000000     0.860640000000     0          
O1       O      0.500000000000     0.297650000000     0.664765000000     0          
C3       C      0.500000000000     0.342200000000     0.616250000000     0          
H1       H      0.500000000000     0.315240000000     0.610640000000     0          
O1       O      0.750000000000     0.047650000000     0.664765000000     0          
C3       C      0.750000000000     0.092200000000     0.616250000000     0          
H1       H      0.750000000000     0.065240000000     0.610640000000     0          
O1       O      0.750000000000     0.297650000000     0.914765000000     0          
C3       C      0.750000000000     0.342200000000     0.866250000000     0          
H1       H      0.750000000000     0.315240000000     0.860640000000     0          
O1       O      0.500000000000     0.452350000000     0.914765000000     0          
C3       C      0.500000000000     0.407800000000     0.866250000000     0          
H1       H      0.500000000000     0.434760000000     0.860640000000     0          
O1       O      0.500000000000     0.202350000000     0.664765000000     0          
C3       C      0.500000000000     0.157800000000     0.616250000000     0          
H1       H      0.500000000000     0.184760000000     0.610640000000     0          
O1       O      0.750000000000     0.452350000000     0.664765000000     0          
C3       C      0.750000000000     0.407800000000     0.616250000000     0          
H1       H      0.750000000000     0.434760000000     0.610640000000     0          
O1       O      0.750000000000     0.202350000000     0.914765000000     0          
C3       C      0.750000000000     0.157800000000     0.866250000000     0          
H1       H      0.750000000000     0.184760000000     0.860640000000     0          
O1       O      0.500000000000     0.452350000000     0.585235000000     0          
C3       C      0.500000000000     0.407800000000     0.633750000000     0          
H1       H      0.500000000000     0.434760000000     0.639360000000     0          
O1       O      0.500000000000     0.202350000000     0.835235000000     0          
C3       C      0.500000000000     0.157800000000     0.883750000000     0          
H1       H      0.500000000000     0.184760000000     0.889360000000     0          
O1       O      0.750000000000     0.452350000000     0.835235000000     0          
C3       C      0.750000000000     0.407800000000     0.883750000000     0          
H1       H      0.750000000000     0.434760000000     0.889360000000     0          
O1       O      0.750000000000     0.202350000000     0.585235000000     0          
C3       C      0.750000000000     0.157800000000     0.633750000000     0          
H1       H      0.750000000000     0.184760000000     0.639360000000     0          
O1       O      0.500000000000     0.085235000000     0.952350000000     0          
C3       C      0.500000000000     0.133750000000     0.907800000000     0          
H1       H      0.500000000000     0.139360000000     0.934760000000     0          
O1       O      0.500000000000     0.335235000000     0.702350000000     0          
C3       C      0.500000000000     0.383750000000     0.657800000000     0          
H1       H      0.500000000000     0.389360000000     0.684760000000     0          
O1       O      0.750000000000     0.085235000000     0.702350000000     0          
C3       C      0.750000000000     0.133750000000     0.657800000000     0          
H1       H      0.750000000000     0.139360000000     0.684760000000     0          
O1       O      0.750000000000     0.335235000000     0.952350000000     0          
C3       C      0.750000000000     0.383750000000     0.907800000000     0          
H1       H      0.750000000000     0.389360000000     0.934760000000     0          
O1       O      0.500000000000     0.414765000000     0.952350000000     0          
C3       C      0.500000000000     0.366250000000     0.907800000000     0          
H1       H      0.500000000000     0.360640000000     0.934760000000     0          
O1       O      0.500000000000     0.164765000000     0.702350000000     0          
C3       C      0.500000000000     0.116250000000     0.657800000000     0          
H1       H      0.500000000000     0.110640000000     0.684760000000     0          
O1       O      0.750000000000     0.414765000000     0.702350000000     0          
C3       C      0.750000000000     0.366250000000     0.657800000000     0          
H1       H      0.750000000000     0.360640000000     0.684760000000     0          
O1       O      0.750000000000     0.164765000000     0.952350000000     0          
C3       C      0.750000000000     0.116250000000     0.907800000000     0          
H1       H      0.750000000000     0.110640000000     0.934760000000     0          
O1       O      0.500000000000     0.414765000000     0.547650000000     0          
C3       C      0.500000000000     0.366250000000     0.592200000000     0          
H1       H      0.500000000000     0.360640000000     0.565240000000     0          
O1       O      0.500000000000     0.164765000000     0.797650000000     0          
C3       C      0.500000000000     0.116250000000     0.842200000000     0          
H1       H      0.500000000000     0.110640000000     0.815240000000     0          
O1       O      0.750000000000     0.414765000000     0.797650000000     0          
C3       C      0.750000000000     0.366250000000     0.842200000000     0          
H1       H      0.750000000000     0.360640000000     0.815240000000     0          
O1       O      0.750000000000     0.164765000000     0.547650000000     0          
C3       C      0.750000000000     0.116250000000     0.592200000000     0          
H1       H      0.750000000000     0.110640000000     0.565240000000     0          
O1       O      0.500000000000     0.085235000000     0.547650000000     0          
C3       C      0.500000000000     0.133750000000     0.592200000000     0          
H1       H      0.500000000000     0.139360000000     0.565240000000     0          
O1       O      0.500000000000     0.335235000000     0.797650000000     0          
C3       C      0.500000000000     0.383750000000     0.842200000000     0          
H1       H      0.500000000000     0.389360000000     0.815240000000     0          
O1       O      0.750000000000     0.085235000000     0.797650000000     0          
C3       C      0.750000000000     0.133750000000     0.842200000000     0          
H1       H      0.750000000000     0.139360000000     0.815240000000     0          
O1       O      0.750000000000     0.335235000000     0.547650000000     0          
C3       C      0.750000000000     0.383750000000     0.592200000000     0          
H1       H      0.750000000000     0.389360000000     0.565240000000     0          
O1       O      0.585235000000     0.047650000000     0.500000000000     0          
C3       C      0.633750000000     0.092200000000     0.500000000000     0          
H1       H      0.639360000000     0.065240000000     0.500000000000     0          
O1       O      0.585235000000     0.297650000000     0.750000000000     0          
C3       C      0.633750000000     0.342200000000     0.750000000000     0          
H1       H      0.639360000000     0.315240000000     0.750000000000     0          
O1       O      0.835235000000     0.047650000000     0.750000000000     0          
C3       C      0.883750000000     0.092200000000     0.750000000000     0          
H1       H      0.889360000000     0.065240000000     0.750000000000     0          
O1       O      0.835235000000     0.297650000000     0.500000000000     0          
C3       C      0.883750000000     0.342200000000     0.500000000000     0          
H1       H      0.889360000000     0.315240000000     0.500000000000     0          
O1       O      0.914765000000     0.047650000000     0.500000000000     0          
C3       C      0.866250000000     0.092200000000     0.500000000000     0          
H1       H      0.860640000000     0.065240000000     0.500000000000     0          
O1       O      0.914765000000     0.297650000000     0.750000000000     0          
C3       C      0.866250000000     0.342200000000     0.750000000000     0          
H1       H      0.860640000000     0.315240000000     0.750000000000     0          
O1       O      0.664765000000     0.047650000000     0.750000000000     0          
C3       C      0.616250000000     0.092200000000     0.750000000000     0          
H1       H      0.610640000000     0.065240000000     0.750000000000     0          
O1       O      0.664765000000     0.297650000000     0.500000000000     0          
C3       C      0.616250000000     0.342200000000     0.500000000000     0          
H1       H      0.610640000000     0.315240000000     0.500000000000     0          
O1       O      0.914765000000     0.452350000000     0.500000000000     0          
C3       C      0.866250000000     0.407800000000     0.500000000000     0          
H1       H      0.860640000000     0.434760000000     0.500000000000     0          
O1       O      0.914765000000     0.202350000000     0.750000000000     0          
C3       C      0.866250000000     0.157800000000     0.750000000000     0          
H1       H      0.860640000000     0.184760000000     0.750000000000     0          
O1       O      0.664765000000     0.452350000000     0.750000000000     0          
C3       C      0.616250000000     0.407800000000     0.750000000000     0          
H1       H      0.610640000000     0.434760000000     0.750000000000     0          
O1       O      0.664765000000     0.202350000000     0.500000000000     0          
C3       C      0.616250000000     0.157800000000     0.500000000000     0          
H1       H      0.610640000000     0.184760000000     0.500000000000     0          
O1       O      0.585235000000     0.452350000000     0.500000000000     0          
C3       C      0.633750000000     0.407800000000     0.500000000000     0          
H1       H      0.639360000000     0.434760000000     0.500000000000     0          
O1       O      0.585235000000     0.202350000000     0.750000000000     0          
C3       C      0.633750000000     0.157800000000     0.750000000000     0          
H1       H      0.639360000000     0.184760000000     0.750000000000     0          
O1       O      0.835235000000     0.452350000000     0.750000000000     0          
C3       C      0.883750000000     0.407800000000     0.750000000000     0          
H1       H      0.889360000000     0.434760000000     0.750000000000     0          
O1       O      0.835235000000     0.202350000000     0.500000000000     0          
C3       C      0.883750000000     0.157800000000     0.500000000000     0          
H1       H      0.889360000000     0.184760000000     0.500000000000     0          
O1       O      0.547650000000     0.000000000000     0.914765000000     0          
C3       C      0.592200000000     0.000000000000     0.866250000000     0          
H1       H      0.565240000000     0.000000000000     0.860640000000     0          
O1       O      0.547650000000     0.250000000000     0.664765000000     0          
C3       C      0.592200000000     0.250000000000     0.616250000000     0          
H1       H      0.565240000000     0.250000000000     0.610640000000     0          
O1       O      0.797650000000     0.000000000000     0.664765000000     0          
C3       C      0.842200000000     0.000000000000     0.616250000000     0          
H1       H      0.815240000000     0.000000000000     0.610640000000     0          
O1       O      0.797650000000     0.250000000000     0.914765000000     0          
C3       C      0.842200000000     0.250000000000     0.866250000000     0          
H1       H      0.815240000000     0.250000000000     0.860640000000     0          
O1       O      0.547650000000     0.000000000000     0.585235000000     0          
C3       C      0.592200000000     0.000000000000     0.633750000000     0          
H1       H      0.565240000000     0.000000000000     0.639360000000     0          
O1       O      0.547650000000     0.250000000000     0.835235000000     0          
C3       C      0.592200000000     0.250000000000     0.883750000000     0          
H1       H      0.565240000000     0.250000000000     0.889360000000     0          
O1       O      0.797650000000     0.000000000000     0.835235000000     0          
C3       C      0.842200000000     0.000000000000     0.883750000000     0          
H1       H      0.815240000000     0.000000000000     0.889360000000     0          
O1       O      0.797650000000     0.250000000000     0.585235000000     0          
C3       C      0.842200000000     0.250000000000     0.633750000000     0          
H1       H      0.815240000000     0.250000000000     0.639360000000     0          
O1       O      0.952350000000     0.000000000000     0.585235000000     0          
C3       C      0.907800000000     0.000000000000     0.633750000000     0          
H1       H      0.934760000000     0.000000000000     0.639360000000     0          
O1       O      0.952350000000     0.250000000000     0.835235000000     0          
C3       C      0.907800000000     0.250000000000     0.883750000000     0          
H1       H      0.934760000000     0.250000000000     0.889360000000     0          
O1       O      0.702350000000     0.000000000000     0.835235000000     0          
C3       C      0.657800000000     0.000000000000     0.883750000000     0          
H1       H      0.684760000000     0.000000000000     0.889360000000     0          
O1       O      0.702350000000     0.250000000000     0.585235000000     0          
C3       C      0.657800000000     0.250000000000     0.633750000000     0          
H1       H      0.684760000000     0.250000000000     0.639360000000     0          
O1       O      0.952350000000     0.000000000000     0.914765000000     0          
C3       C      0.907800000000     0.000000000000     0.866250000000     0          
H1       H      0.934760000000     0.000000000000     0.860640000000     0          
O1       O      0.952350000000     0.250000000000     0.664765000000     0          
C3       C      0.907800000000     0.250000000000     0.616250000000     0          
H1       H      0.934760000000     0.250000000000     0.610640000000     0          
O1       O      0.702350000000     0.000000000000     0.664765000000     0          
C3       C      0.657800000000     0.000000000000     0.616250000000     0          
H1       H      0.684760000000     0.000000000000     0.610640000000     0          
O1       O      0.702350000000     0.250000000000     0.914765000000     0          
C3       C      0.657800000000     0.250000000000     0.866250000000     0          
H1       H      0.684760000000     0.250000000000     0.860640000000     0          
O2       O      0.528050000000     0.221950000000     0.721950000000     0          
O2       O      0.778050000000     0.471950000000     0.721950000000     0          
O2       O      0.778050000000     0.221950000000     0.971950000000     0          
O2       O      0.721950000000     0.028050000000     0.721950000000     0          
O2       O      0.721950000000     0.278050000000     0.971950000000     0          
O2       O      0.971950000000     0.471950000000     0.528050000000     0          
O2       O      0.971950000000     0.221950000000     0.778050000000     0          
O2       O      0.528050000000     0.028050000000     0.528050000000     0          
O2       O      0.778050000000     0.278050000000     0.528050000000     0          
O2       O      0.971950000000     0.028050000000     0.528050000000     0          
O2       O      0.971950000000     0.278050000000     0.778050000000     0          
O2       O      0.721950000000     0.028050000000     0.778050000000     0          
O2       O      0.721950000000     0.278050000000     0.528050000000     0          
O2       O      0.528050000000     0.471950000000     0.528050000000     0          
O2       O      0.528050000000     0.221950000000     0.778050000000     0          
O2       O      0.778050000000     0.471950000000     0.778050000000     0          
O2       O      0.778050000000     0.221950000000     0.528050000000     0          
O2       O      0.971950000000     0.471950000000     0.971950000000     0          
O2       O      0.971950000000     0.221950000000     0.721950000000     0          
O2       O      0.721950000000     0.471950000000     0.721950000000     0          
O2       O      0.721950000000     0.221950000000     0.971950000000     0          
O2       O      0.528050000000     0.028050000000     0.971950000000     0          
O2       O      0.528050000000     0.278050000000     0.721950000000     0          
O2       O      0.778050000000     0.028050000000     0.721950000000     0          
C1       C      0.576800000000     0.000000000000     0.923200000000     0          
C1       C      0.576800000000     0.250000000000     0.673200000000     0          
C1       C      0.826800000000     0.000000000000     0.673200000000     0          
C1       C      0.826800000000     0.250000000000     0.923200000000     0          
C1       C      0.923200000000     0.000000000000     0.923200000000     0          
C1       C      0.923200000000     0.250000000000     0.673200000000     0          
C1       C      0.673200000000     0.000000000000     0.673200000000     0          
C1       C      0.673200000000     0.250000000000     0.923200000000     0          
C1       C      0.923200000000     0.000000000000     0.576800000000     0          
C1       C      0.923200000000     0.250000000000     0.826800000000     0          
C1       C      0.673200000000     0.000000000000     0.826800000000     0          
C1       C      0.673200000000     0.250000000000     0.576800000000     0          
C1       C      0.576800000000     0.000000000000     0.576800000000     0          
C1       C      0.576800000000     0.250000000000     0.826800000000     0          
C1       C      0.826800000000     0.000000000000     0.826800000000     0          
C1       C      0.826800000000     0.250000000000     0.576800000000     0          
C1       C      0.923200000000     0.076800000000     0.500000000000     0          
C1       C      0.923200000000     0.326800000000     0.750000000000     0          
C1       C      0.673200000000     0.076800000000     0.750000000000     0          
C1       C      0.673200000000     0.326800000000     0.500000000000     0          
C1       C      0.923200000000     0.423200000000     0.500000000000     0          
C1       C      0.923200000000     0.173200000000     0.750000000000     0          
C1       C      0.673200000000     0.423200000000     0.750000000000     0          
C1       C      0.673200000000     0.173200000000     0.500000000000     0          
C1       C      0.576800000000     0.423200000000     0.500000000000     0          
C1       C      0.576800000000     0.173200000000     0.750000000000     0          
C1       C      0.826800000000     0.423200000000     0.750000000000     0          
C1       C      0.826800000000     0.173200000000     0.500000000000     0          
C1       C      0.576800000000     0.076800000000     0.500000000000     0          
C1       C      0.576800000000     0.326800000000     0.750000000000     0          
C1       C      0.826800000000     0.076800000000     0.750000000000     0          
C1       C      0.826800000000     0.326800000000     0.500000000000     0          
C1       C      0.500000000000     0.423200000000     0.576800000000     0          
C1       C      0.500000000000     0.173200000000     0.826800000000     0          
C1       C      0.750000000000     0.423200000000     0.826800000000     0          
C1       C      0.750000000000     0.173200000000     0.576800000000     0          
C1       C      0.500000000000     0.423200000000     0.923200000000     0          
C1       C      0.500000000000     0.173200000000     0.673200000000     0          
C1       C      0.750000000000     0.423200000000     0.673200000000     0          
C1       C      0.750000000000     0.173200000000     0.923200000000     0          
C1       C      0.500000000000     0.076800000000     0.923200000000     0          
C1       C      0.500000000000     0.326800000000     0.673200000000     0          
C1       C      0.750000000000     0.076800000000     0.673200000000     0          
C1       C      0.750000000000     0.326800000000     0.923200000000     0          
C1       C      0.500000000000     0.076800000000     0.576800000000     0          
C1       C      0.500000000000     0.326800000000     0.826800000000     0          
C1       C      0.750000000000     0.076800000000     0.826800000000     0          
C1       C      0.750000000000     0.326800000000     0.576800000000     0          
C2       C      0.602500000000     0.000000000000     0.602500000000     0          
C2       C      0.602500000000     0.250000000000     0.852500000000     0          
C2       C      0.852500000000     0.000000000000     0.852500000000     0          
C2       C      0.852500000000     0.250000000000     0.602500000000     0          
C2       C      0.897500000000     0.000000000000     0.602500000000     0          
C2       C      0.897500000000     0.250000000000     0.852500000000     0          
C2       C      0.647500000000     0.000000000000     0.852500000000     0          
C2       C      0.647500000000     0.250000000000     0.602500000000     0          
C2       C      0.897500000000     0.000000000000     0.897500000000     0          
C2       C      0.897500000000     0.250000000000     0.647500000000     0          
C2       C      0.647500000000     0.000000000000     0.647500000000     0          
C2       C      0.647500000000     0.250000000000     0.897500000000     0          
C2       C      0.602500000000     0.000000000000     0.897500000000     0          
C2       C      0.602500000000     0.250000000000     0.647500000000     0          
C2       C      0.852500000000     0.000000000000     0.647500000000     0          
C2       C      0.852500000000     0.250000000000     0.897500000000     0          
C2       C      0.602500000000     0.102500000000     0.500000000000     0          
C2       C      0.602500000000     0.352500000000     0.750000000000     0          
C2       C      0.852500000000     0.102500000000     0.750000000000     0          
C2       C      0.852500000000     0.352500000000     0.500000000000     0          
C2       C      0.602500000000     0.397500000000     0.500000000000     0          
C2       C      0.602500000000     0.147500000000     0.750000000000     0          
C2       C      0.852500000000     0.397500000000     0.750000000000     0          
C2       C      0.852500000000     0.147500000000     0.500000000000     0          
C2       C      0.897500000000     0.397500000000     0.500000000000     0          
C2       C      0.897500000000     0.147500000000     0.750000000000     0          
C2       C      0.647500000000     0.397500000000     0.750000000000     0          
C2       C      0.647500000000     0.147500000000     0.500000000000     0          
C2       C      0.897500000000     0.102500000000     0.500000000000     0          
C2       C      0.897500000000     0.352500000000     0.750000000000     0          
C2       C      0.647500000000     0.102500000000     0.750000000000     0          
C2       C      0.647500000000     0.352500000000     0.500000000000     0          
C2       C      0.500000000000     0.102500000000     0.602500000000     0          
C2       C      0.500000000000     0.352500000000     0.852500000000     0          
C2       C      0.750000000000     0.102500000000     0.852500000000     0          
C2       C      0.750000000000     0.352500000000     0.602500000000     0          
C2       C      0.500000000000     0.102500000000     0.897500000000     0          
C2       C      0.500000000000     0.352500000000     0.647500000000     0          
C2       C      0.750000000000     0.102500000000     0.647500000000     0          
C2       C      0.750000000000     0.352500000000     0.897500000000     0          
C2       C      0.500000000000     0.397500000000     0.897500000000     0          
C2       C      0.500000000000     0.147500000000     0.647500000000     0          
C2       C      0.750000000000     0.397500000000     0.647500000000     0          
C2       C      0.750000000000     0.147500000000     0.897500000000     0          
C2       C      0.500000000000     0.397500000000     0.602500000000     0          
C2       C      0.500000000000     0.147500000000     0.852500000000     0          
C2       C      0.750000000000     0.397500000000     0.852500000000     0          
C2       C      0.750000000000     0.147500000000     0.602500000000     0          
Zr1      Zr     0.559945000000     0.500000000000     0.000000000000     0          
Zr1      Zr     0.559945000000     0.750000000000     0.250000000000     0          
Zr1      Zr     0.809945000000     0.500000000000     0.250000000000     0          
Zr1      Zr     0.809945000000     0.750000000000     0.000000000000     0          
Zr1      Zr     0.940055000000     0.500000000000     0.000000000000     0          
Zr1      Zr     0.940055000000     0.750000000000     0.250000000000     0          
Zr1      Zr     0.690055000000     0.500000000000     0.250000000000     0          
Zr1      Zr     0.690055000000     0.750000000000     0.000000000000     0          
Zr1      Zr     0.500000000000     0.559945000000     0.000000000000     0          
Zr1      Zr     0.500000000000     0.809945000000     0.250000000000     0          
Zr1      Zr     0.750000000000     0.559945000000     0.250000000000     0          
Zr1      Zr     0.750000000000     0.809945000000     0.000000000000     0          
Zr1      Zr     0.500000000000     0.940055000000     0.000000000000     0          
Zr1      Zr     0.500000000000     0.690055000000     0.250000000000     0          
Zr1      Zr     0.750000000000     0.940055000000     0.250000000000     0          
Zr1      Zr     0.750000000000     0.690055000000     0.000000000000     0          
Zr1      Zr     0.500000000000     0.500000000000     0.059945000000     0          
Zr1      Zr     0.500000000000     0.750000000000     0.309945000000     0          
Zr1      Zr     0.750000000000     0.500000000000     0.309945000000     0          
Zr1      Zr     0.750000000000     0.750000000000     0.059945000000     0          
Zr1      Zr     0.500000000000     0.500000000000     0.440055000000     0          
Zr1      Zr     0.500000000000     0.750000000000     0.190055000000     0          
Zr1      Zr     0.750000000000     0.500000000000     0.190055000000     0          
Zr1      Zr     0.750000000000     0.750000000000     0.440055000000     0          
O1       O      0.585235000000     0.500000000000     0.047650000000     0          
C3       C      0.633750000000     0.500000000000     0.092200000000     0          
H1       H      0.639360000000     0.500000000000     0.065240000000     0          
O1       O      0.585235000000     0.750000000000     0.297650000000     0          
C3       C      0.633750000000     0.750000000000     0.342200000000     0          
H1       H      0.639360000000     0.750000000000     0.315240000000     0          
O1       O      0.835235000000     0.500000000000     0.297650000000     0          
C3       C      0.883750000000     0.500000000000     0.342200000000     0          
H1       H      0.889360000000     0.500000000000     0.315240000000     0          
O1       O      0.835235000000     0.750000000000     0.047650000000     0          
C3       C      0.883750000000     0.750000000000     0.092200000000     0          
H1       H      0.889360000000     0.750000000000     0.065240000000     0          
O1       O      0.914765000000     0.500000000000     0.047650000000     0          
C3       C      0.866250000000     0.500000000000     0.092200000000     0          
H1       H      0.860640000000     0.500000000000     0.065240000000     0          
O1       O      0.914765000000     0.750000000000     0.297650000000     0          
C3       C      0.866250000000     0.750000000000     0.342200000000     0          
H1       H      0.860640000000     0.750000000000     0.315240000000     0          
O1       O      0.664765000000     0.500000000000     0.297650000000     0          
C3       C      0.616250000000     0.500000000000     0.342200000000     0          
H1       H      0.610640000000     0.500000000000     0.315240000000     0          
O1       O      0.664765000000     0.750000000000     0.047650000000     0          
C3       C      0.616250000000     0.750000000000     0.092200000000     0          
H1       H      0.610640000000     0.750000000000     0.065240000000     0          
O1       O      0.914765000000     0.500000000000     0.452350000000     0          
C3       C      0.866250000000     0.500000000000     0.407800000000     0          
H1       H      0.860640000000     0.500000000000     0.434760000000     0          
O1       O      0.914765000000     0.750000000000     0.202350000000     0          
C3       C      0.866250000000     0.750000000000     0.157800000000     0          
H1       H      0.860640000000     0.750000000000     0.184760000000     0          
O1       O      0.664765000000     0.500000000000     0.202350000000     0          
C3       C      0.616250000000     0.500000000000     0.157800000000     0          
H1       H      0.610640000000     0.500000000000     0.184760000000     0          
O1       O      0.664765000000     0.750000000000     0.452350000000     0          
C3       C      0.616250000000     0.750000000000     0.407800000000     0          
H1       H      0.610640000000     0.750000000000     0.434760000000     0          
O1       O      0.585235000000     0.500000000000     0.452350000000     0          
C3       C      0.633750000000     0.500000000000     0.407800000000     0          
H1       H      0.639360000000     0.500000000000     0.434760000000     0          
O1       O      0.585235000000     0.750000000000     0.202350000000     0          
C3       C      0.633750000000     0.750000000000     0.157800000000     0          
H1       H      0.639360000000     0.750000000000     0.184760000000     0          
O1       O      0.835235000000     0.500000000000     0.202350000000     0          
C3       C      0.883750000000     0.500000000000     0.157800000000     0          
H1       H      0.889360000000     0.500000000000     0.184760000000     0          
O1       O      0.835235000000     0.750000000000     0.452350000000     0          
C3       C      0.883750000000     0.750000000000     0.407800000000     0          
H1       H      0.889360000000     0.750000000000     0.434760000000     0          
O1       O      0.547650000000     0.585235000000     0.000000000000     0          
C3       C      0.592200000000     0.633750000000     0.000000000000     0          
H1       H      0.565240000000     0.639360000000     0.000000000000     0          
O1       O      0.547650000000     0.835235000000     0.250000000000     0          
C3       C      0.592200000000     0.883750000000     0.250000000000     0          
H1       H      0.565240000000     0.889360000000     0.250000000000     0          
O1       O      0.797650000000     0.585235000000     0.250000000000     0          
C3       C      0.842200000000     0.633750000000     0.250000000000     0          
H1       H      0.815240000000     0.639360000000     0.250000000000     0          
O1       O      0.797650000000     0.835235000000     0.000000000000     0          
C3       C      0.842200000000     0.883750000000     0.000000000000     0          
H1       H      0.815240000000     0.889360000000     0.000000000000     0          
O1       O      0.547650000000     0.914765000000     0.000000000000     0          
C3       C      0.592200000000     0.866250000000     0.000000000000     0          
H1       H      0.565240000000     0.860640000000     0.000000000000     0          
O1       O      0.547650000000     0.664765000000     0.250000000000     0          
C3       C      0.592200000000     0.616250000000     0.250000000000     0          
H1       H      0.565240000000     0.610640000000     0.250000000000     0          
O1       O      0.797650000000     0.914765000000     0.250000000000     0          
C3       C      0.842200000000     0.866250000000     0.250000000000     0          
H1       H      0.815240000000     0.860640000000     0.250000000000     0          
O1       O      0.797650000000     0.664765000000     0.000000000000     0          
C3       C      0.842200000000     0.616250000000     0.000000000000     0          
H1       H      0.815240000000     0.610640000000     0.000000000000     0          
O1       O      0.952350000000     0.914765000000     0.000000000000     0          
C3       C      0.907800000000     0.866250000000     0.000000000000     0          
H1       H      0.934760000000     0.860640000000     0.000000000000     0          
O1       O      0.952350000000     0.664765000000     0.250000000000     0          
C3       C      0.907800000000     0.616250000000     0.250000000000     0          
H1       H      0.934760000000     0.610640000000     0.250000000000     0          
O1       O      0.702350000000     0.914765000000     0.250000000000     0          
C3       C      0.657800000000     0.866250000000     0.250000000000     0          
H1       H      0.684760000000     0.860640000000     0.250000000000     0          
O1       O      0.702350000000     0.664765000000     0.000000000000     0          
C3       C      0.657800000000     0.616250000000     0.000000000000     0          
H1       H      0.684760000000     0.610640000000     0.000000000000     0          
O1       O      0.952350000000     0.585235000000     0.000000000000     0          
C3       C      0.907800000000     0.633750000000     0.000000000000     0          
H1       H      0.934760000000     0.639360000000     0.000000000000     0          
O1       O      0.952350000000     0.835235000000     0.250000000000     0          
C3       C      0.907800000000     0.883750000000     0.250000000000     0          
H1       H      0.934760000000     0.889360000000     0.250000000000     0          
O1       O      0.702350000000     0.585235000000     0.250000000000     0          
C3       C      0.657800000000     0.633750000000     0.250000000000     0          
H1       H      0.684760000000     0.639360000000     0.250000000000     0          
O1       O      0.702350000000     0.835235000000     0.000000000000     0          
C3       C      0.657800000000     0.883750000000     0.000000000000     0          
H1       H      0.684760000000     0.889360000000     0.000000000000     0          
O1       O      0.500000000000     0.547650000000     0.085235000000     0          
C3       C      0.500000000000     0.592200000000     0.133750000000     0          
H1       H      0.500000000000     0.565240000000     0.139360000000     0          
O1       O      0.500000000000     0.797650000000     0.335235000000     0          
C3       C      0.500000000000     0.842200000000     0.383750000000     0          
H1       H      0.500000000000     0.815240000000     0.389360000000     0          
O1       O      0.750000000000     0.547650000000     0.335235000000     0          
C3       C      0.750000000000     0.592200000000     0.383750000000     0          
H1       H      0.750000000000     0.565240000000     0.389360000000     0          
O1       O      0.750000000000     0.797650000000     0.085235000000     0          
C3       C      0.750000000000     0.842200000000     0.133750000000     0          
H1       H      0.750000000000     0.815240000000     0.139360000000     0          
O1       O      0.500000000000     0.547650000000     0.414765000000     0          
C3       C      0.500000000000     0.592200000000     0.366250000000     0          
H1       H      0.500000000000     0.565240000000     0.360640000000     0          
O1       O      0.500000000000     0.797650000000     0.164765000000     0          
C3       C      0.500000000000     0.842200000000     0.116250000000     0          
H1       H      0.500000000000     0.815240000000     0.110640000000     0          
O1       O      0.750000000000     0.547650000000     0.164765000000     0          
C3       C      0.750000000000     0.592200000000     0.116250000000     0          
H1       H      0.750000000000     0.565240000000     0.110640000000     0          
O1       O      0.750000000000     0.797650000000     0.414765000000     0          
C3       C      0.750000000000     0.842200000000     0.366250000000     0          
H1       H      0.750000000000     0.815240000000     0.360640000000     0          
O1       O      0.500000000000     0.952350000000     0.414765000000     0          
C3       C      0.500000000000     0.907800000000     0.366250000000     0          
H1       H      0.500000000000     0.934760000000     0.360640000000     0          
O1       O      0.500000000000     0.702350000000     0.164765000000     0          
C3       C      0.500000000000     0.657800000000     0.116250000000     0          
H1       H      0.500000000000     0.684760000000     0.110640000000     0          
O1       O      0.750000000000     0.952350000000     0.164765000000     0          
C3       C      0.750000000000     0.907800000000     0.116250000000     0          
H1       H      0.750000000000     0.934760000000     0.110640000000     0          
O1       O      0.750000000000     0.702350000000     0.414765000000     0          
C3       C      0.750000000000     0.657800000000     0.366250000000     0          
H1       H      0.750000000000     0.684760000000     0.360640000000     0          
O1       O      0.500000000000     0.952350000000     0.085235000000     0          
C3       C      0.500000000000     0.907800000000     0.133750000000     0          
H1       H      0.500000000000     0.934760000000     0.139360000000     0          
O1       O      0.500000000000     0.702350000000     0.335235000000     0          
C3       C      0.500000000000     0.657800000000     0.383750000000     0          
H1       H      0.500000000000     0.684760000000     0.389360000000     0          
O1       O      0.750000000000     0.952350000000     0.335235000000     0          
C3       C      0.750000000000     0.907800000000     0.383750000000     0          
H1       H      0.750000000000     0.934760000000     0.389360000000     0          
O1       O      0.750000000000     0.702350000000     0.085235000000     0          
C3       C      0.750000000000     0.657800000000     0.133750000000     0          
H1       H      0.750000000000     0.684760000000     0.139360000000     0          
O1       O      0.500000000000     0.585235000000     0.452350000000     0          
C3       C      0.500000000000     0.633750000000     0.407800000000     0          
H1       H      0.500000000000     0.639360000000     0.434760000000     0          
O1       O      0.500000000000     0.835235000000     0.202350000000     0          
C3       C      0.500000000000     0.883750000000     0.157800000000     0          
H1       H      0.500000000000     0.889360000000     0.184760000000     0          
O1       O      0.750000000000     0.585235000000     0.202350000000     0          
C3       C      0.750000000000     0.633750000000     0.157800000000     0          
H1       H      0.750000000000     0.639360000000     0.184760000000     0          
O1       O      0.750000000000     0.835235000000     0.452350000000     0          
C3       C      0.750000000000     0.883750000000     0.407800000000     0          
H1       H      0.750000000000     0.889360000000     0.434760000000     0          
O1       O      0.500000000000     0.914765000000     0.452350000000     0          
C3       C      0.500000000000     0.866250000000     0.407800000000     0          
H1       H      0.500000000000     0.860640000000     0.434760000000     0          
O1       O      0.500000000000     0.664765000000     0.202350000000     0          
C3       C      0.500000000000     0.616250000000     0.157800000000     0          
H1       H      0.500000000000     0.610640000000     0.184760000000     0          
O1       O      0.750000000000     0.914765000000     0.202350000000     0          
C3       C      0.750000000000     0.866250000000     0.157800000000     0          
H1       H      0.750000000000     0.860640000000     0.184760000000     0          
O1       O      0.750000000000     0.664765000000     0.452350000000     0          
C3       C      0.750000000000     0.616250000000     0.407800000000     0          
H1       H      0.750000000000     0.610640000000     0.434760000000     0          
O1       O      0.500000000000     0.914765000000     0.047650000000     0          
C3       C      0.500000000000     0.866250000000     0.092200000000     0          
H1       H      0.500000000000     0.860640000000     0.065240000000     0          
O1       O      0.500000000000     0.664765000000     0.297650000000     0          
C3       C      0.500000000000     0.616250000000     0.342200000000     0          
H1       H      0.500000000000     0.610640000000     0.315240000000     0          
O1       O      0.750000000000     0.914765000000     0.297650000000     0          
C3       C      0.750000000000     0.866250000000     0.342200000000     0          
H1       H      0.750000000000     0.860640000000     0.315240000000     0          
O1       O      0.750000000000     0.664765000000     0.047650000000     0          
C3       C      0.750000000000     0.616250000000     0.092200000000     0          
H1       H      0.750000000000     0.610640000000     0.065240000000     0          
O1       O      0.500000000000     0.585235000000     0.047650000000     0          
C3       C      0.500000000000     0.633750000000     0.092200000000     0          
H1       H      0.500000000000     0.639360000000     0.065240000000     0          
O1       O      0.500000000000     0.835235000000     0.297650000000     0          
C3       C      0.500000000000     0.883750000000     0.342200000000     0          
H1       H      0.500000000000     0.889360000000     0.315240000000     0          
O1       O      0.750000000000     0.585235000000     0.297650000000     0          
C3       C      0.750000000000     0.633750000000     0.342200000000     0          
H1       H      0.750000000000     0.639360000000     0.315240000000     0          
O1       O      0.750000000000     0.835235000000     0.047650000000     0          
C3       C      0.750000000000     0.883750000000     0.092200000000     0          
H1       H      0.750000000000     0.889360000000     0.065240000000     0          
O1       O      0.585235000000     0.547650000000     0.000000000000     0          
C3       C      0.633750000000     0.592200000000     0.000000000000     0          
H1       H      0.639360000000     0.565240000000     0.000000000000     0          
O1       O      0.585235000000     0.797650000000     0.250000000000     0          
C3       C      0.633750000000     0.842200000000     0.250000000000     0          
H1       H      0.639360000000     0.815240000000     0.250000000000     0          
O1       O      0.835235000000     0.547650000000     0.250000000000     0          
C3       C      0.883750000000     0.592200000000     0.250000000000     0          
H1       H      0.889360000000     0.565240000000     0.250000000000     0          
O1       O      0.835235000000     0.797650000000     0.000000000000     0          
C3       C      0.883750000000     0.842200000000     0.000000000000     0          
H1       H      0.889360000000     0.815240000000     0.000000000000     0          
O1       O      0.914765000000     0.547650000000     0.000000000000     0          
C3       C      0.866250000000     0.592200000000     0.000000000000     0          
H1       H      0.860640000000     0.565240000000     0.000000000000     0          
O1       O      0.914765000000     0.797650000000     0.250000000000     0          
C3       C      0.866250000000     0.842200000000     0.250000000000     0          
H1       H      0.860640000000     0.815240000000     0.250000000000     0          
O1       O      0.664765000000     0.547650000000     0.250000000000     0          
C3       C      0.616250000000     0.592200000000     0.250000000000     0          
H1       H      0.610640000000     0.565240000000     0.250000000000     0          
O1       O      0.664765000000     0.797650000000     0.000000000000     0          
C3       C      0.616250000000     0.842200000000     0.000000000000     0          
H1       H      0.610640000000     0.815240000000     0.000000000000     0          
O1       O      0.914765000000     0.952350000000     0.000000000000     0          
C3       C      0.866250000000     0.907800000000     0.000000000000     0          
H1       H      0.860640000000     0.934760000000     0.000000000000     0          
O1       O      0.914765000000     0.702350000000     0.250000000000     0          
C3       C      0.866250000000     0.657800000000     0.250000000000     0          
H1       H      0.860640000000     0.684760000000     0.250000000000     0          
O1       O      0.664765000000     0.952350000000     0.250000000000     0          
C3       C      0.616250000000     0.907800000000     0.250000000000     0          
H1       H      0.610640000000     0.934760000000     0.250000000000     0          
O1       O      0.664765000000     0.702350000000     0.000000000000     0          
C3       C      0.616250000000     0.657800000000     0.000000000000     0          
H1       H      0.610640000000     0.684760000000     0.000000000000     0          
O1       O      0.585235000000     0.952350000000     0.000000000000     0          
C3       C      0.633750000000     0.907800000000     0.000000000000     0          
H1       H      0.639360000000     0.934760000000     0.000000000000     0          
O1       O      0.585235000000     0.702350000000     0.250000000000     0          
C3       C      0.633750000000     0.657800000000     0.250000000000     0          
H1       H      0.639360000000     0.684760000000     0.250000000000     0          
O1       O      0.835235000000     0.952350000000     0.250000000000     0          
C3       C      0.883750000000     0.907800000000     0.250000000000     0          
H1       H      0.889360000000     0.934760000000     0.250000000000     0          
O1       O      0.835235000000     0.702350000000     0.000000000000     0          
C3       C      0.883750000000     0.657800000000     0.000000000000     0          
H1       H      0.889360000000     0.684760000000     0.000000000000     0          
O1       O      0.547650000000     0.500000000000     0.414765000000     0          
C3       C      0.592200000000     0.500000000000     0.366250000000     0          
H1       H      0.565240000000     0.500000000000     0.360640000000     0          
O1       O      0.547650000000     0.750000000000     0.164765000000     0          
C3       C      0.592200000000     0.750000000000     0.116250000000     0          
H1       H      0.565240000000     0.750000000000     0.110640000000     0          
O1       O      0.797650000000     0.500000000000     0.164765000000     0          
C3       C      0.842200000000     0.500000000000     0.116250000000     0          
H1       H      0.815240000000     0.500000000000     0.110640000000     0          
O1       O      0.797650000000     0.750000000000     0.414765000000     0          
C3       C      0.842200000000     0.750000000000     0.366250000000     0          
H1       H      0.815240000000     0.750000000000     0.360640000000     0          
O1       O      0.547650000000     0.500000000000     0.085235000000     0          
C3       C      0.592200000000     0.500000000000     0.133750000000     0          
H1       H      0.565240000000     0.500000000000     0.139360000000     0          
O1       O      0.547650000000     0.750000000000     0.335235000000     0          
C3       C      0.592200000000     0.750000000000     0.383750000000     0          
H1       H      0.565240000000     0.750000000000     0.389360000000     0          
O1       O      0.797650000000     0.500000000000     0.335235000000     0          
C3       C      0.842200000000     0.500000000000     0.383750000000     0          
H1       H      0.815240000000     0.500000000000     0.389360000000     0          
O1       O      0.797650000000     0.750000000000     0.085235000000     0          
C3       C      0.842200000000     0.750000000000     0.133750000000     0          
H1       H      0.815240000000     0.750000000000     0.139360000000     0          
O1       O      0.952350000000     0.500000000000     0.085235000000     0          
C3       C      0.907800000000     0.500000000000     0.133750000000     0          
H1       H      0.934760000000     0.500000000000     0.139360000000     0          
O1       O      0.952350000000     0.750000000000     0.335235000000     0          
C3       C      0.907800000000     0.750000000000     0.383750000000     0          
H1       H      0.934760000000     0.750000000000     0.389360000000     0          
O1       O      0.702350000000     0.500000000000     0.335235000000     0          
C3       C      0.657800000000     0.500000000000     0.383750000000     0          
H1       H      0.684760000000     0.500000000000     0.389360000000     0          
O1       O      0.702350000000     0.750000000000     0.085235000000     0          
C3       C      0.657800000000     0.750000000000     0.133750000000     0          
H1       H      0.684760000000     0.750000000000     0.139360000000     0          
O1       O      0.952350000000     0.500000000000     0.414765000000     0          
C3       C      0.907800000000     0.500000000000     0.366250000000     0          
H1       H      0.934760000000     0.500000000000     0.360640000000     0          
O1       O      0.952350000000     0.750000000000     0.164765000000     0          
C3       C      0.907800000000     0.750000000000     0.116250000000     0          
H1       H      0.934760000000     0.750000000000     0.110640000000     0          
O1       O      0.702350000000     0.500000000000     0.164765000000     0          
C3       C      0.657800000000     0.500000000000     0.116250000000     0          
H1       H      0.684760000000     0.500000000000     0.110640000000     0          
O1       O      0.702350000000     0.750000000000     0.414765000000     0          
C3       C      0.657800000000     0.750000000000     0.366250000000     0          
H1       H      0.684760000000     0.750000000000     0.360640000000     0          
O2       O      0.528050000000     0.721950000000     0.221950000000     0          
O2       O      0.778050000000     0.971950000000     0.221950000000     0          
O2       O      0.778050000000     0.721950000000     0.471950000000     0          
O2       O      0.721950000000     0.528050000000     0.221950000000     0          
O2       O      0.721950000000     0.778050000000     0.471950000000     0          
O2       O      0.971950000000     0.971950000000     0.028050000000     0          
O2       O      0.971950000000     0.721950000000     0.278050000000     0          
O2       O      0.528050000000     0.528050000000     0.028050000000     0          
O2       O      0.778050000000     0.778050000000     0.028050000000     0          
O2       O      0.971950000000     0.528050000000     0.028050000000     0          
O2       O      0.971950000000     0.778050000000     0.278050000000     0          
O2       O      0.721950000000     0.528050000000     0.278050000000     0          
O2       O      0.721950000000     0.778050000000     0.028050000000     0          
O2       O      0.528050000000     0.971950000000     0.028050000000     0          
O2       O      0.528050000000     0.721950000000     0.278050000000     0          
O2       O      0.778050000000     0.971950000000     0.278050000000     0          
O2       O      0.778050000000     0.721950000000     0.028050000000     0          
O2       O      0.971950000000     0.971950000000     0.471950000000     0          
O2       O      0.971950000000     0.721950000000     0.221950000000     0          
O2       O      0.721950000000     0.971950000000     0.221950000000     0          
O2       O      0.721950000000     0.721950000000     0.471950000000     0          
O2       O      0.528050000000     0.528050000000     0.471950000000     0          
O2       O      0.528050000000     0.778050000000     0.221950000000     0          
O2       O      0.778050000000     0.528050000000     0.221950000000     0          
C1       C      0.576800000000     0.500000000000     0.423200000000     0          
C1       C      0.576800000000     0.750000000000     0.173200000000     0          
C1       C      0.826800000000     0.500000000000     0.173200000000     0          
C1       C      0.826800000000     0.750000000000     0.423200000000     0          
C1       C      0.923200000000     0.500000000000     0.423200000000     0          
C1       C      0.923200000000     0.750000000000     0.173200000000     0          
C1       C      0.673200000000     0.500000000000     0.173200000000     0          
C1       C      0.673200000000     0.750000000000     0.423200000000     0          
C1       C      0.923200000000     0.500000000000     0.076800000000     0          
C1       C      0.923200000000     0.750000000000     0.326800000000     0          
C1       C      0.673200000000     0.500000000000     0.326800000000     0          
C1       C      0.673200000000     0.750000000000     0.076800000000     0          
C1       C      0.576800000000     0.500000000000     0.076800000000     0          
C1       C      0.576800000000     0.750000000000     0.326800000000     0          
C1       C      0.826800000000     0.500000000000     0.326800000000     0          
C1       C      0.826800000000     0.750000000000     0.076800000000     0          
C1       C      0.923200000000     0.576800000000     0.000000000000     0          
C1       C      0.923200000000     0.826800000000     0.250000000000     0          
C1       C      0.673200000000     0.576800000000     0.250000000000     0          
C1       C      0.673200000000     0.826800000000     0.000000000000     0          
C1       C      0.923200000000     0.923200000000     0.000000000000     0          
C1       C      0.923200000000     0.673200000000     0.250000000000     0          
C1       C      0.673200000000     0.923200000000     0.250000000000     0          
C1       C      0.673200000000     0.673200000000     0.000000000000     0          
C1       C      0.576800000000     0.923200000000     0.000000000000     0          
C1       C      0.576800000000     0.673200000000     0.250000000000     0          
C1       C      0.826800000000     0.923200000000     0.250000000000     0          
C1       C      0.826800000000     0.673200000000     0.000000000000     0          
C1       C      0.576800000000     0.576800000000     0.000000000000     0          
C1       C      0.576800000000     0.826800000000     0.250000000000     0          
C1       C      0.826800000000     0.576800000000     0.250000000000     0          
C1       C      0.826800000000     0.826800000000     0.000000000000     0          
C1       C      0.500000000000     0.923200000000     0.076800000000     0          
C1       C      0.500000000000     0.673200000000     0.326800000000     0          
C1       C      0.750000000000     0.923200000000     0.326800000000     0          
C1       C      0.750000000000     0.673200000000     0.076800000000     0          
C1       C      0.500000000000     0.923200000000     0.423200000000     0          
C1       C      0.500000000000     0.673200000000     0.173200000000     0          
C1       C      0.750000000000     0.923200000000     0.173200000000     0          
C1       C      0.750000000000     0.673200000000     0.423200000000     0          
C1       C      0.500000000000     0.576800000000     0.423200000000     0          
C1       C      0.500000000000     0.826800000000     0.173200000000     0          
C1       C      0.750000000000     0.576800000000     0.173200000000     0          
C1       C      0.750000000000     0.826800000000     0.423200000000     0          
C1       C      0.500000000000     0.576800000000     0.076800000000     0          
C1       C      0.500000000000     0.826800000000     0.326800000000     0          
C1       C      0.750000000000     0.576800000000     0.326800000000     0          
C1       C      0.750000000000     0.826800000000     0.076800000000     0          
C2       C      0.602500000000     0.500000000000     0.102500000000     0          
C2       C      0.602500000000     0.750000000000     0.352500000000     0          
C2       C      0.852500000000     0.500000000000     0.352500000000     0          
C2       C      0.852500000000     0.750000000000     0.102500000000     0          
C2       C      0.897500000000     0.500000000000     0.102500000000     0          
C2       C      0.897500000000     0.750000000000     0.352500000000     0          
C2       C      0.647500000000     0.500000000000     0.352500000000     0          
C2       C      0.647500000000     0.750000000000     0.102500000000     0          
C2       C      0.897500000000     0.500000000000     0.397500000000     0          
C2       C      0.897500000000     0.750000000000     0.147500000000     0          
C2       C      0.647500000000     0.500000000000     0.147500000000     0          
C2       C      0.647500000000     0.750000000000     0.397500000000     0          
C2       C      0.602500000000     0.500000000000     0.397500000000     0          
C2       C      0.602500000000     0.750000000000     0.147500000000     0          
C2       C      0.852500000000     0.500000000000     0.147500000000     0          
C2       C      0.852500000000     0.750000000000     0.397500000000     0          
C2       C      0.602500000000     0.602500000000     0.000000000000     0          
C2       C      0.602500000000     0.852500000000     0.250000000000     0          
C2       C      0.852500000000     0.602500000000     0.250000000000     0          
C2       C      0.852500000000     0.852500000000     0.000000000000     0          
C2       C      0.602500000000     0.897500000000     0.000000000000     0          
C2       C      0.602500000000     0.647500000000     0.250000000000     0          
C2       C      0.852500000000     0.897500000000     0.250000000000     0          
C2       C      0.852500000000     0.647500000000     0.000000000000     0          
C2       C      0.897500000000     0.897500000000     0.000000000000     0          
C2       C      0.897500000000     0.647500000000     0.250000000000     0          
C2       C      0.647500000000     0.897500000000     0.250000000000     0          
C2       C      0.647500000000     0.647500000000     0.000000000000     0          
C2       C      0.897500000000     0.602500000000     0.000000000000     0          
C2       C      0.897500000000     0.852500000000     0.250000000000     0          
C2       C      0.647500000000     0.602500000000     0.250000000000     0          
C2       C      0.647500000000     0.852500000000     0.000000000000     0          
C2       C      0.500000000000     0.602500000000     0.102500000000     0          
C2       C      0.500000000000     0.852500000000     0.352500000000     0          
C2       C      0.750000000000     0.602500000000     0.352500000000     0          
C2       C      0.750000000000     0.852500000000     0.102500000000     0          
C2       C      0.500000000000     0.602500000000     0.397500000000     0          
C2       C      0.500000000000     0.852500000000     0.147500000000     0          
C2       C      0.750000000000     0.602500000000     0.147500000000     0          
C2       C      0.750000000000     0.852500000000     0.397500000000     0          
C2       C      0.500000000000     0.897500000000     0.397500000000     0          
C2       C      0.500000000000     0.647500000000     0.147500000000     0          
C2       C      0.750000000000     0.897500000000     0.147500000000     0          
C2       C      0.750000000000     0.647500000000     0.397500000000     0          
C2       C      0.500000000000     0.897500000000     0.102500000000     0          
C2       C      0.500000000000     0.647500000000     0.352500000000     0          
C2       C      0.750000000000     0.897500000000     0.352500000000     0          
C2       C      0.750000000000     0.647500000000     0.102500000000     0          
Zr1      Zr     0.559945000000     0.500000000000     0.500000000000     0          
Zr1      Zr     0.559945000000     0.750000000000     0.750000000000     0          
Zr1      Zr     0.809945000000     0.500000000000     0.750000000000     0          
Zr1      Zr     0.809945000000     0.750000000000     0.500000000000     0          
Zr1      Zr     0.940055000000     0.500000000000     0.500000000000     0          
Zr1      Zr     0.940055000000     0.750000000000     0.750000000000     0          
Zr1      Zr     0.690055000000     0.500000000000     0.750000000000     0          
Zr1      Zr     0.690055000000     0.750000000000     0.500000000000     0          
Zr1      Zr     0.500000000000     0.559945000000     0.500000000000     0          
Zr1      Zr     0.500000000000     0.809945000000     0.750000000000     0          
Zr1      Zr     0.750000000000     0.559945000000     0.750000000000     0          
Zr1      Zr     0.750000000000     0.809945000000     0.500000000000     0          
Zr1      Zr     0.500000000000     0.940055000000     0.500000000000     0          
Zr1      Zr     0.500000000000     0.690055000000     0.750000000000     0          
Zr1      Zr     0.750000000000     0.940055000000     0.750000000000     0          
Zr1      Zr     0.750000000000     0.690055000000     0.500000000000     0          
Zr1      Zr     0.500000000000     0.500000000000     0.559945000000     0          
Zr1      Zr     0.500000000000     0.750000000000     0.809945000000     0          
Zr1      Zr     0.750000000000     0.500000000000     0.809945000000     0          
Zr1      Zr     0.750000000000     0.750000000000     0.559945000000     0          
Zr1      Zr     0.500000000000     0.500000000000     0.940055000000     0          
Zr1      Zr     0.500000000000     0.750000000000     0.690055000000     0          
Zr1      Zr     0.750000000000     0.500000000000     0.690055000000     0          
Zr1      Zr     0.750000000000     0.750000000000     0.940055000000     0          
O1       O      0.585235000000     0.500000000000     0.547650000000     0          
C3       C      0.633750000000     0.500000000000     0.592200000000     0          
H1       H      0.639360000000     0.500000000000     0.565240000000     0          
O1       O      0.585235000000     0.750000000000     0.797650000000     0          
C3       C      0.633750000000     0.750000000000     0.842200000000     0          
H1       H      0.639360000000     0.750000000000     0.815240000000     0          
O1       O      0.835235000000     0.500000000000     0.797650000000     0          
C3       C      0.883750000000     0.500000000000     0.842200000000     0          
H1       H      0.889360000000     0.500000000000     0.815240000000     0          
O1       O      0.835235000000     0.750000000000     0.547650000000     0          
C3       C      0.883750000000     0.750000000000     0.592200000000     0          
H1       H      0.889360000000     0.750000000000     0.565240000000     0          
O1       O      0.914765000000     0.500000000000     0.547650000000     0          
C3       C      0.866250000000     0.500000000000     0.592200000000     0          
H1       H      0.860640000000     0.500000000000     0.565240000000     0          
O1       O      0.914765000000     0.750000000000     0.797650000000     0          
C3       C      0.866250000000     0.750000000000     0.842200000000     0          
H1       H      0.860640000000     0.750000000000     0.815240000000     0          
O1       O      0.664765000000     0.500000000000     0.797650000000     0          
C3       C      0.616250000000     0.500000000000     0.842200000000     0          
H1       H      0.610640000000     0.500000000000     0.815240000000     0          
O1       O      0.664765000000     0.750000000000     0.547650000000     0          
C3       C      0.616250000000     0.750000000000     0.592200000000     0          
H1       H      0.610640000000     0.750000000000     0.565240000000     0          
O1       O      0.914765000000     0.500000000000     0.952350000000     0          
C3       C      0.866250000000     0.500000000000     0.907800000000     0          
H1       H      0.860640000000     0.500000000000     0.934760000000     0          
O1       O      0.914765000000     0.750000000000     0.702350000000     0          
C3       C      0.866250000000     0.750000000000     0.657800000000     0          
H1       H      0.860640000000     0.750000000000     0.684760000000     0          
O1       O      0.664765000000     0.500000000000     0.702350000000     0          
C3       C      0.616250000000     0.500000000000     0.657800000000     0          
H1       H      0.610640000000     0.500000000000     0.684760000000     0          
O1       O      0.664765000000     0.750000000000     0.952350000000     0          
C3       C      0.616250000000     0.750000000000     0.907800000000     0          
H1       H      0.610640000000     0.750000000000     0.934760000000     0          
O1       O      0.585235000000     0.500000000000     0.952350000000     0          
C3       C      0.633750000000     0.500000000000     0.907800000000     0          
H1       H      0.639360000000     0.500000000000     0.934760000000     0          
O1       O      0.585235000000     0.750000000000     0.702350000000     0          
C3       C      0.633750000000     0.750000000000     0.657800000000     0          
H1       H      0.639360000000     0.750000000000     0.684760000000     0          
O1       O      0.835235000000     0.500000000000     0.702350000000     0          
C3       C      0.883750000000     0.500000000000     0.657800000000     0          
H1       H      0.889360000000     0.500000000000     0.684760000000     0          
O1       O      0.835235000000     0.750000000000     0.952350000000     0          
C3       C      0.883750000000     0.750000000000     0.907800000000     0          
H1       H      0.889360000000     0.750000000000     0.934760000000     0          
O1       O      0.547650000000     0.585235000000     0.500000000000     0          
C3       C      0.592200000000     0.633750000000     0.500000000000     0          
H1       H      0.565240000000     0.639360000000     0.500000000000     0          
O1       O      0.547650000000     0.835235000000     0.750000000000     0          
C3       C      0.592200000000     0.883750000000     0.750000000000     0          
H1       H      0.565240000000     0.889360000000     0.750000000000     0          
O1       O      0.797650000000     0.585235000000     0.750000000000     0          
C3       C      0.842200000000     0.633750000000     0.750000000000     0          
H1       H      0.815240000000     0.639360000000     0.750000000000     0          
O1       O      0.797650000000     0.835235000000     0.500000000000     0          
C3       C      0.842200000000     0.883750000000     0.500000000000     0          
H1       H      0.815240000000     0.889360000000     0.500000000000     0          
O1       O      0.547650000000     0.914765000000     0.500000000000     0          
C3       C      0.592200000000     0.866250000000     0.500000000000     0          
H1       H      0.565240000000     0.860640000000     0.500000000000     0          
O1       O      0.547650000000     0.664765000000     0.750000000000     0          
C3       C      0.592200000000     0.616250000000     0.750000000000     0          
H1       H      0.565240000000     0.610640000000     0.750000000000     0          
O1       O      0.797650000000     0.914765000000     0.750000000000     0          
C3       C      0.842200000000     0.866250000000     0.750000000000     0          
H1       H      0.815240000000     0.860640000000     0.750000000000     0          
O1       O      0.797650000000     0.664765000000     0.500000000000     0          
C3       C      0.842200000000     0.616250000000     0.500000000000     0          
H1       H      0.815240000000     0.610640000000     0.500000000000     0          
O1       O      0.952350000000     0.914765000000     0.500000000000     0          
C3       C      0.907800000000     0.866250000000     0.500000000000     0          
H1       H      0.934760000000     0.860640000000     0.500000000000     0          
O1       O      0.952350000000     0.664765000000     0.750000000000     0          
C3       C      0.907800000000     0.616250000000     0.750000000000     0          
H1       H      0.934760000000     0.610640000000     0.750000000000     0          
O1       O      0.702350000000     0.914765000000     0.750000000000     0          
C3       C      0.657800000000     0.866250000000     0.750000000000     0          
H1       H      0.684760000000     0.860640000000     0.750000000000     0          
O1       O      0.702350000000     0.664765000000     0.500000000000     0          
C3       C      0.657800000000     0.616250000000     0.500000000000     0          
H1       H      0.684760000000     0.610640000000     0.500000000000     0          
O1       O      0.952350000000     0.585235000000     0.500000000000     0          
C3       C      0.907800000000     0.633750000000     0.500000000000     0          
H1       H      0.934760000000     0.639360000000     0.500000000000     0          
O1       O      0.952350000000     0.835235000000     0.750000000000     0          
C3       C      0.907800000000     0.883750000000     0.750000000000     0          
H1       H      0.934760000000     0.889360000000     0.750000000000     0          
O1       O      0.702350000000     0.585235000000     0.750000000000     0          
C3       C      0.657800000000     0.633750000000     0.750000000000     0          
H1       H      0.684760000000     0.639360000000     0.750000000000     0          
O1       O      0.702350000000     0.835235000000     0.500000000000     0          
C3       C      0.657800000000     0.883750000000     0.500000000000     0          
H1       H      0.684760000000     0.889360000000     0.500000000000     0          
O1       O      0.500000000000     0.547650000000     0.585235000000     0          
C3       C      0.500000000000     0.592200000000     0.633750000000     0          
H1       H      0.500000000000     0.565240000000     0.639360000000     0          
O1       O      0.500000000000     0.797650000000     0.835235000000     0          
C3       C      0.500000000000     0.842200000000     0.883750000000     0          
H1       H      0.500000000000     0.815240000000     0.889360000000     0          
O1       O      0.750000000000     0.547650000000     0.835235000000     0          
C3       C      0.750000000000     0.592200000000     0.883750000000     0          
H1       H      0.750000000000     0.565240000000     0.889360000000     0          
O1       O      0.750000000000     0.797650000000     0.585235000000     0          
C3       C      0.750000000000     0.842200000000     0.633750000000     0          
H1       H      0.750000000000     0.815240000000     0.639360000000     0          
O1       O      0.500000000000     0.547650000000     0.914765000000     0          
C3       C      0.500000000000     0.592200000000     0.866250000000     0          
H1       H      0.500000000000     0.565240000000     0.860640000000     0          
O1       O      0.500000000000     0.797650000000     0.664765000000     0          
C3       C      0.500000000000     0.842200000000     0.616250000000     0          
H1       H      0.500000000000     0.815240000000     0.610640000000     0          
O1       O      0.750000000000     0.547650000000     0.664765000000     0          
C3       C      0.750000000000     0.592200000000     0.616250000000     0          
H1       H      0.750000000000     0.565240000000     0.610640000000     0          
O1       O      0.750000000000     0.797650000000     0.914765000000     0          
C3       C      0.750000000000     0.842200000000     0.866250000000     0          
H1       H      0.750000000000     0.815240000000     0.860640000000     0          
O1       O      0.500000000000     0.952350000000     0.914765000000     0          
C3       C      0.500000000000     0.907800000000     0.866250000000     0          
H1       H      0.500000000000     0.934760000000     0.860640000000     0          
O1       O      0.500000000000     0.702350000000     0.664765000000     0          
C3       C      0.500000000000     0.657800000000     0.616250000000     0          
H1       H      0.500000000000     0.684760000000     0.610640000000     0          
O1       O      0.750000000000     0.952350000000     0.664765000000     0          
C3       C      0.750000000000     0.907800000000     0.616250000000     0          
H1       H      0.750000000000     0.934760000000     0.610640000000     0          
O1       O      0.750000000000     0.702350000000     0.914765000000     0          
C3       C      0.750000000000     0.657800000000     0.866250000000     0          
H1       H      0.750000000000     0.684760000000     0.860640000000     0          
O1       O      0.500000000000     0.952350000000     0.585235000000     0          
C3       C      0.500000000000     0.907800000000     0.633750000000     0          
H1       H      0.500000000000     0.934760000000     0.639360000000     0          
O1       O      0.500000000000     0.702350000000     0.835235000000     0          
C3       C      0.500000000000     0.657800000000     0.883750000000     0          
H1       H      0.500000000000     0.684760000000     0.889360000000     0          
O1       O      0.750000000000     0.952350000000     0.835235000000     0          
C3       C      0.750000000000     0.907800000000     0.883750000000     0          
H1       H      0.750000000000     0.934760000000     0.889360000000     0          
O1       O      0.750000000000     0.702350000000     0.585235000000     0          
C3       C      0.750000000000     0.657800000000     0.633750000000     0          
H1       H      0.750000000000     0.684760000000     0.639360000000     0          
O1       O      0.500000000000     0.585235000000     0.952350000000     0          
C3       C      0.500000000000     0.633750000000     0.907800000000     0          
H1       H      0.500000000000     0.639360000000     0.934760000000     0          
O1       O      0.500000000000     0.835235000000     0.702350000000     0          
C3       C      0.500000000000     0.883750000000     0.657800000000     0          
H1       H      0.500000000000     0.889360000000     0.684760000000     0          
O1       O      0.750000000000     0.585235000000     0.702350000000     0          
C3       C      0.750000000000     0.633750000000     0.657800000000     0          
H1       H      0.750000000000     0.639360000000     0.684760000000     0          
O1       O      0.750000000000     0.835235000000     0.952350000000     0          
C3       C      0.750000000000     0.883750000000     0.907800000000     0          
H1       H      0.750000000000     0.889360000000     0.934760000000     0          
O1       O      0.500000000000     0.914765000000     0.952350000000     0          
C3       C      0.500000000000     0.866250000000     0.907800000000     0          
H1       H      0.500000000000     0.860640000000     0.934760000000     0          
O1       O      0.500000000000     0.664765000000     0.702350000000     0          
C3       C      0.500000000000     0.616250000000     0.657800000000     0          
H1       H      0.500000000000     0.610640000000     0.684760000000     0          
O1       O      0.750000000000     0.914765000000     0.702350000000     0          
C3       C      0.750000000000     0.866250000000     0.657800000000     0          
H1       H      0.750000000000     0.860640000000     0.684760000000     0          
O1       O      0.750000000000     0.664765000000     0.952350000000     0          
C3       C      0.750000000000     0.616250000000     0.907800000000     0          
H1       H      0.750000000000     0.610640000000     0.934760000000     0          
O1       O      0.500000000000     0.914765000000     0.547650000000     0          
C3       C      0.500000000000     0.866250000000     0.592200000000     0          
H1       H      0.500000000000     0.860640000000     0.565240000000     0          
O1       O      0.500000000000     0.664765000000     0.797650000000     0          
C3       C      0.500000000000     0.616250000000     0.842200000000     0          
H1       H      0.500000000000     0.610640000000     0.815240000000     0          
O1       O      0.750000000000     0.914765000000     0.797650000000     0          
C3       C      0.750000000000     0.866250000000     0.842200000000     0          
H1       H      0.750000000000     0.860640000000     0.815240000000     0          
O1       O      0.750000000000     0.664765000000     0.547650000000     0          
C3       C      0.750000000000     0.616250000000     0.592200000000     0          
H1       H      0.750000000000     0.610640000000     0.565240000000     0          
O1       O      0.500000000000     0.585235000000     0.547650000000     0          
C3       C      0.500000000000     0.633750000000     0.592200000000     0          
H1       H      0.500000000000     0.639360000000     0.565240000000     0          
O1       O      0.500000000000     0.835235000000     0.797650000000     0          
C3       C      0.500000000000     0.883750000000     0.842200000000     0          
H1       H      0.500000000000     0.889360000000     0.815240000000     0          
O1       O      0.750000000000     0.585235000000     0.797650000000     0          
C3       C      0.750000000000     0.633750000000     0.842200000000     0          
H1       H      0.750000000000     0.639360000000     0.815240000000     0          
O1       O      0.750000000000     0.835235000000     0.547650000000     0          
C3       C      0.750000000000     0.883750000000     0.592200000000     0          
H1       H      0.750000000000     0.889360000000     0.565240000000     0          
O1       O      0.585235000000     0.547650000000     0.500000000000     0          
C3       C      0.633750000000     0.592200000000     0.500000000000     0          
H1       H      0.639360000000     0.565240000000     0.500000000000     0          
O1       O      0.585235000000     0.797650000000     0.750000000000     0          
C3       C      0.633750000000     0.842200000000     0.750000000000     0          
H1       H      0.639360000000     0.815240000000     0.750000000000     0          
O1       O      0.835235000000     0.547650000000     0.750000000000     0          
C3       C      0.883750000000     0.592200000000     0.750000000000     0          
H1       H      0.889360000000     0.565240000000     0.750000000000     0          
O1       O      0.835235000000     0.797650000000     0.500000000000     0          
C3       C      0.883750000000     0.842200000000     0.500000000000     0          
H1       H      0.889360000000     0.815240000000     0.500000000000     0          
O1       O      0.914765000000     0.547650000000     0.500000000000     0          
C3       C      0.866250000000     0.592200000000     0.500000000000     0          
H1       H      0.860640000000     0.565240000000     0.500000000000     0          
O1       O      0.914765000000     0.797650000000     0.750000000000     0          
C3       C      0.866250000000     0.842200000000     0.750000000000     0          
H1       H      0.860640000000     0.815240000000     0.750000000000     0          
O1       O      0.664765000000     0.547650000000     0.750000000000     0          
C3       C      0.616250000000     0.592200000000     0.750000000000     0          
H1       H      0.610640000000     0.565240000000     0.750000000000     0          
O1       O      0.664765000000     0.797650000000     0.500000000000     0          
C3       C      0.616250000000     0.842200000000     0.500000000000     0          
H1       H      0.610640000000     0.815240000000     0.500000000000     0          
O1       O      0.914765000000     0.952350000000     0.500000000000     0          
C3       C      0.866250000000     0.907800000000     0.500000000000     0          
H1       H      0.860640000000     0.934760000000     0.500000000000     0          
O1       O      0.914765000000     0.702350000000     0.750000000000     0          
C3       C      0.866250000000     0.657800000000     0.750000000000     0          
H1       H      0.860640000000     0.684760000000     0.750000000000     0          
O1       O      0.664765000000     0.952350000000     0.750000000000     0          
C3       C      0.616250000000     0.907800000000     0.750000000000     0          
H1       H      0.610640000000     0.934760000000     0.750000000000     0          
O1       O      0.664765000000     0.702350000000     0.500000000000     0          
C3       C      0.616250000000     0.657800000000     0.500000000000     0          
H1       H      0.610640000000     0.684760000000     0.500000000000     0          
O1       O      0.585235000000     0.952350000000     0.500000000000     0          
C3       C      0.633750000000     0.907800000000     0.500000000000     0          
H1       H      0.639360000000     0.934760000000     0.500000000000     0          
O1       O      0.585235000000     0.702350000000     0.750000000000     0          
C3       C      0.633750000000     0.657800000000     0.750000000000     0          
H1       H      0.639360000000     0.684760000000     0.750000000000     0          
O1       O      0.835235000000     0.952350000000     0.750000000000     0          
C3       C      0.883750000000     0.907800000000     0.750000000000     0          
H1       H      0.889360000000     0.934760000000     0.750000000000     0          
O1       O      0.835235000000     0.702350000000     0.500000000000     0          
C3       C      0.883750000000     0.657800000000     0.500000000000     0          
H1       H      0.889360000000     0.684760000000     0.500000000000     0          
O1       O      0.547650000000     0.500000000000     0.914765000000     0          
C3       C      0.592200000000     0.500000000000     0.866250000000     0          
H1       H      0.565240000000     0.500000000000     0.860640000000     0          
O1       O      0.547650000000     0.750000000000     0.664765000000     0          
C3       C      0.592200000000     0.750000000000     0.616250000000     0          
H1       H      0.565240000000     0.750000000000     0.610640000000     0          
O1       O      0.797650000000     0.500000000000     0.664765000000     0          
C3       C      0.842200000000     0.500000000000     0.616250000000     0          
H1       H      0.815240000000     0.500000000000     0.610640000000     0          
O1       O      0.797650000000     0.750000000000     0.914765000000     0          
C3       C      0.842200000000     0.750000000000     0.866250000000     0          
H1       H      0.815240000000     0.750000000000     0.860640000000     0          
O1       O      0.547650000000     0.500000000000     0.585235000000     0          
C3       C      0.592200000000     0.500000000000     0.633750000000     0          
H1       H      0.565240000000     0.500000000000     0.639360000000     0          
O1       O      0.547650000000     0.750000000000     0.835235000000     0          
C3       C      0.592200000000     0.750000000000     0.883750000000     0          
H1       H      0.565240000000     0.750000000000     0.889360000000     0          
O1       O      0.797650000000     0.500000000000     0.835235000000     0          
C3       C      0.842200000000     0.500000000000     0.883750000000     0          
H1       H      0.815240000000     0.500000000000     0.889360000000     0          
O1       O      0.797650000000     0.750000000000     0.585235000000     0          
C3       C      0.842200000000     0.750000000000     0.633750000000     0          
H1       H      0.815240000000     0.750000000000     0.639360000000     0          
O1       O      0.952350000000     0.500000000000     0.585235000000     0          
C3       C      0.907800000000     0.500000000000     0.633750000000     0          
H1       H      0.934760000000     0.500000000000     0.639360000000     0          
O1       O      0.952350000000     0.750000000000     0.835235000000     0          
C3       C      0.907800000000     0.750000000000     0.883750000000     0          
H1       H      0.934760000000     0.750000000000     0.889360000000     0          
O1       O      0.702350000000     0.500000000000     0.835235000000     0          
C3       C      0.657800000000     0.500000000000     0.883750000000     0          
H1       H      0.684760000000     0.500000000000     0.889360000000     0          
O1       O      0.702350000000     0.750000000000     0.585235000000     0          
C3       C      0.657800000000     0.750000000000     0.633750000000     0          
H1       H      0.684760000000     0.750000000000     0.639360000000     0          
O1       O      0.952350000000     0.500000000000     0.914765000000     0          
C3       C      0.907800000000     0.500000000000     0.866250000000     0          
H1       H      0.934760000000     0.500000000000     0.860640000000     0          
O1       O      0.952350000000     0.750000000000     0.664765000000     0          
C3       C      0.907800000000     0.750000000000     0.616250000000     0          
H1       H      0.934760000000     0.750000000000     0.610640000000     0          
O1       O      0.702350000000     0.500000000000     0.664765000000     0          
C3       C      0.657800000000     0.500000000000     0.616250000000     0          
H1       H      0.684760000000     0.500000000000     0.610640000000     0          
O1       O      0.702350000000     0.750000000000     0.914765000000     0          
C3       C      0.657800000000     0.750000000000     0.866250000000     0          
H1       H      0.684760000000     0.750000000000     0.860640000000     0          
O2       O      0.528050000000     0.721950000000     0.721950000000     0          
O2       O      0.778050000000     0.971950000000     0.721950000000     0          
O2       O      0.778050000000     0.721950000000     0.971950000000     0          
O2       O      0.721950000000     0.528050000000     0.721950000000     0          
O2       O      0.721950000000     0.778050000000     0.971950000000     0          
O2       O      0.971950000000     0.971950000000     0.528050000000     0          
O2       O      0.971950000000     0.721950000000     0.778050000000     0          
O2       O      0.528050000000     0.528050000000     0.528050000000     0          
O2       O      0.778050000000     0.778050000000     0.528050000000     0          
O2       O      0.971950000000     0.528050000000     0.528050000000     0          
O2       O      0.971950000000     0.778050000000     0.778050000000     0          
O2       O      0.721950000000     0.528050000000     0.778050000000     0          
O2       O      0.721950000000     0.778050000000     0.528050000000     0          
O2       O      0.528050000000     0.971950000000     0.528050000000     0          
O2       O      0.528050000000     0.721950000000     0.778050000000     0          
O2       O      0.778050000000     0.971950000000     0.778050000000     0          
O2       O      0.778050000000     0.721950000000     0.528050000000     0          
O2       O      0.971950000000     0.971950000000     0.971950000000     0          
O2       O      0.971950000000     0.721950000000     0.721950000000     0          
O2       O      0.721950000000     0.971950000000     0.721950000000     0          
O2       O      0.721950000000     0.721950000000     0.971950000000     0          
O2       O      0.528050000000     0.528050000000     0.971950000000     0          
O2       O      0.528050000000     0.778050000000     0.721950000000     0          
O2       O      0.778050000000     0.528050000000     0.721950000000     0          
C1       C      0.576800000000     0.500000000000     0.923200000000     0          
C1       C      0.576800000000     0.750000000000     0.673200000000     0          
C1       C      0.826800000000     0.500000000000     0.673200000000     0          
C1       C      0.826800000000     0.750000000000     0.923200000000     0          
C1       C      0.923200000000     0.500000000000     0.923200000000     0          
C1       C      0.923200000000     0.750000000000     0.673200000000     0          
C1       C      0.673200000000     0.500000000000     0.673200000000     0          
C1       C      0.673200000000     0.750000000000     0.923200000000     0          
C1       C      0.923200000000     0.500000000000     0.576800000000     0          
C1       C      0.923200000000     0.750000000000     0.826800000000     0          
C1       C      0.673200000000     0.500000000000     0.826800000000     0          
C1       C      0.673200000000     0.750000000000     0.576800000000     0          
C1       C      0.576800000000     0.500000000000     0.576800000000     0          
C1       C      0.576800000000     0.750000000000     0.826800000000     0          
C1       C      0.826800000000     0.500000000000     0.826800000000     0          
C1       C      0.826800000000     0.750000000000     0.576800000000     0          
C1       C      0.923200000000     0.576800000000     0.500000000000     0          
C1       C      0.923200000000     0.826800000000     0.750000000000     0          
C1       C      0.673200000000     0.576800000000     0.750000000000     0          
C1       C      0.673200000000     0.826800000000     0.500000000000     0          
C1       C      0.923200000000     0.923200000000     0.500000000000     0          
C1       C      0.923200000000     0.673200000000     0.750000000000     0          
C1       C      0.673200000000     0.923200000000     0.750000000000     0          
C1       C      0.673200000000     0.673200000000     0.500000000000     0          
C1       C      0.576800000000     0.923200000000     0.500000000000     0          
C1       C      0.576800000000     0.673200000000     0.750000000000     0          
C1       C      0.826800000000     0.923200000000     0.750000000000     0          
C1       C      0.826800000000     0.673200000000     0.500000000000     0          
C1       C      0.576800000000     0.576800000000     0.500000000000     0          
C1       C      0.576800000000     0.826800000000     0.750000000000     0          
C1       C      0.826800000000     0.576800000000     0.750000000000     0          
C1       C      0.826800000000     0.826800000000     0.500000000000     0          
C1       C      0.500000000000     0.923200000000     0.576800000000     0          
C1       C      0.500000000000     0.673200000000     0.826800000000     0          
C1       C      0.750000000000     0.923200000000     0.826800000000     0          
C1       C      0.750000000000     0.673200000000     0.576800000000     0          
C1       C      0.500000000000     0.923200000000     0.923200000000     0          
C1       C      0.500000000000     0.673200000000     0.673200000000     0          
C1       C      0.750000000000     0.923200000000     0.673200000000     0          
C1       C      0.750000000000     0.673200000000     0.923200000000     0          
C1       C      0.500000000000     0.576800000000     0.923200000000     0          
C1       C      0.500000000000     0.826800000000     0.673200000000     0          
C1       C      0.750000000000     0.576800000000     0.673200000000     0          
C1       C      0.750000000000     0.826800000000     0.923200000000     0          
C1       C      0.500000000000     0.576800000000     0.576800000000     0          
C1       C      0.500000000000     0.826800000000     0.826800000000     0          
C1       C      0.750000000000     0.576800000000     0.826800000000     0          
C1       C      0.750000000000     0.826800000000     0.576800000000     0          
C2       C      0.602500000000     0.500000000000     0.602500000000     0          
C2       C      0.602500000000     0.750000000000     0.852500000000     0          
C2       C      0.852500000000     0.500000000000     0.852500000000     0          
C2       C      0.852500000000     0.750000000000     0.602500000000     0          
C2       C      0.897500000000     0.500000000000     0.602500000000     0          
C2       C      0.897500000000     0.750000000000     0.852500000000     0          
C2       C      0.647500000000     0.500000000000     0.852500000000     0          
C2       C      0.647500000000     0.750000000000     0.602500000000     0          
C2       C      0.897500000000     0.500000000000     0.897500000000     0          
C2       C      0.897500000000     0.750000000000     0.647500000000     0          
C2       C      0.647500000000     0.500000000000     0.647500000000     0          
C2       C      0.647500000000     0.750000000000     0.897500000000     0          
C2       C      0.602500000000     0.500000000000     0.897500000000     0          
C2       C      0.602500000000     0.750000000000     0.647500000000     0          
C2       C      0.852500000000     0.500000000000     0.647500000000     0          
C2       C      0.852500000000     0.750000000000     0.897500000000     0          
C2       C      0.602500000000     0.602500000000     0.500000000000     0          
C2       C      0.602500000000     0.852500000000     0.750000000000     0          
C2       C      0.852500000000     0.602500000000     0.750000000000     0          
C2       C      0.852500000000     0.852500000000     0.500000000000     0          
C2       C      0.602500000000     0.897500000000     0.500000000000     0          
C2       C      0.602500000000     0.647500000000     0.750000000000     0          
C2       C      0.852500000000     0.897500000000     0.750000000000     0          
C2       C      0.852500000000     0.647500000000     0.500000000000     0          
C2       C      0.897500000000     0.897500000000     0.500000000000     0          
C2       C      0.897500000000     0.647500000000     0.750000000000     0          
C2       C      0.647500000000     0.897500000000     0.750000000000     0          
C2       C      0.647500000000     0.647500000000     0.500000000000     0          
C2       C      0.897500000000     0.602500000000     0.500000000000     0          
C2       C      0.897500000000     0.852500000000     0.750000000000     0          
C2       C      0.647500000000     0.602500000000     0.750000000000     0          
C2       C      0.647500000000     0.852500000000     0.500000000000     0          
C2       C      0.500000000000     0.602500000000     0.602500000000     0          
C2       C      0.500000000000     0.852500000000     0.852500000000     0          
C2       C      0.750000000000     0.602500000000     0.852500000000     0          
C2       C      0.750000000000     0.852500000000     0.602500000000     0          
C2       C      0.500000000000     0.602500000000     0.897500000000     0          
C2       C      0.500000000000     0.852500000000     0.647500000000     0          
C2       C      0.750000000000     0.602500000000     0.647500000000     0          
C2       C      0.750000000000     0.852500000000     0.897500000000     0          
C2       C      0.500000000000     0.897500000000     0.897500000000     0          
C2       C      0.500000000000     0.647500000000     0.647500000000     0          
C2       C      0.750000000000     0.897500000000     0.647500000000     0          
C2       C      0.750000000000     0.647500000000     0.897500000000     0          
C2       C      0.500000000000     0.897500000000     0.602500000000     0          
C2       C      0.500000000000     0.647500000000     0.852500000000     0          
C2       C      0.750000000000     0.897500000000     0.852500000000     0          
C2       C      0.750000000000     0.647500000000     0.602500000000     0          


