data_ZIF-8

_audit_creation_method RASPA-1.0
_audit_creation_date 2021-5-11
_audit_author_name 'hiuki'

_citation_author_name        'K.S. Park, Z. Ni, A.P. Cote, J.Y. Choi, R.D. Huang, F.J. Uribe-Romo, H.K. Chae, M. Oâ€™Keeffe, and O.M. Yaghi'
_citation_title              'Exceptional chemical and thermal stability of zeolitic imidazolate frameworks'
_citation_journal_abbrev     'P. Natl. Acad. Sci. USA'
_citation_journal_volume     103
_citation_page_first         10186
_citation_page_last          10191
_citation_year               2006

_cell_length_a    33.982
_cell_length_b    33.982
_cell_length_c    33.982
_cell_angle_alpha 90
_cell_angle_beta  90
_cell_angle_gamma 90
_cell_volume      39241.6

_symmetry_cell_setting          triclinic
_symmetry_space_group_name_Hall 'P 1'
_symmetry_space_group_name_H-M  'P 1'
_symmetry_Int_Tables_number     1

_symmetry_equiv_pos_as_xyz 'x,y,z'

loop_
_atom_site_label
_atom_site_type_symbol
_atom_site_fract_x
_atom_site_fract_y
_atom_site_fract_z
_atom_site_charge
C1       C      0.188525000000     0.003950000000     0.311475000000     0          
C2       C      0.184255000000     0.449570000000     0.343750000000     0          
H2       H      0.188850000000     0.429450000000     0.361700000000     0          
C3       C      0.203050000000     0.042750000000     0.296950000000     0          
N1       N      0.204865000000     0.484160000000     0.341390000000     0          
Zn1      Zn     0.250000000000     0.000000000000     0.375000000000     0          
C1       C      0.003950000000     0.311475000000     0.188525000000     0          
C2       C      0.449570000000     0.315745000000     0.156250000000     0          
H2       H      0.429450000000     0.311150000000     0.138300000000     0          
C3       C      0.042750000000     0.296950000000     0.203050000000     0          
N1       N      0.484160000000     0.295135000000     0.158610000000     0          
Zn1      Zn     0.000000000000     0.250000000000     0.125000000000     0          
C1       C      0.311475000000     0.496050000000     0.311475000000     0          
C2       C      0.315745000000     0.050430000000     0.343750000000     0          
H2       H      0.311150000000     0.070550000000     0.361700000000     0          
C3       C      0.296950000000     0.457250000000     0.296950000000     0          
H3A      H      0.270650000000     0.460100000000     0.287150000000     0          
H3B      H      0.297100000000     0.438600000000     0.318200000000     0          
H3C      H      0.313800000000     0.448050000000     0.276250000000     0          
N1       N      0.295135000000     0.015840000000     0.341390000000     0          
C1       C      0.496050000000     0.188525000000     0.188525000000     0          
C2       C      0.050430000000     0.184255000000     0.156250000000     0          
H2       H      0.070550000000     0.188850000000     0.138300000000     0          
C3       C      0.457250000000     0.203050000000     0.203050000000     0          
H3A      H      0.460100000000     0.229350000000     0.212850000000     0          
H3B      H      0.438600000000     0.202900000000     0.181800000000     0          
H3C      H      0.448050000000     0.186200000000     0.223750000000     0          
N1       N      0.015840000000     0.204865000000     0.158610000000     0          
C1       C      0.188525000000     0.496050000000     0.188525000000     0          
C2       C      0.184255000000     0.050430000000     0.156250000000     0          
H2       H      0.188850000000     0.070550000000     0.138300000000     0          
C3       C      0.203050000000     0.457250000000     0.203050000000     0          
N1       N      0.204865000000     0.015840000000     0.158610000000     0          
Zn1      Zn     0.250000000000     0.000000000000     0.125000000000     0          
C1       C      0.496050000000     0.311475000000     0.311475000000     0          
C2       C      0.050430000000     0.315745000000     0.343750000000     0          
H2       H      0.070550000000     0.311150000000     0.361700000000     0          
C3       C      0.457250000000     0.296950000000     0.296950000000     0          
N1       N      0.015840000000     0.295135000000     0.341390000000     0          
Zn1      Zn     0.000000000000     0.250000000000     0.375000000000     0          
C1       C      0.311475000000     0.003950000000     0.188525000000     0          
C2       C      0.315745000000     0.449570000000     0.156250000000     0          
H2       H      0.311150000000     0.429450000000     0.138300000000     0          
C3       C      0.296950000000     0.042750000000     0.203050000000     0          
H3A      H      0.270650000000     0.039900000000     0.212850000000     0          
H3B      H      0.297100000000     0.061400000000     0.181800000000     0          
H3C      H      0.313800000000     0.051950000000     0.223750000000     0          
N1       N      0.295135000000     0.484160000000     0.158610000000     0          
C1       C      0.003950000000     0.188525000000     0.311475000000     0          
C2       C      0.449570000000     0.184255000000     0.343750000000     0          
H2       H      0.429450000000     0.188850000000     0.361700000000     0          
C3       C      0.042750000000     0.203050000000     0.296950000000     0          
H3A      H      0.039900000000     0.229350000000     0.287150000000     0          
H3B      H      0.061400000000     0.202900000000     0.318200000000     0          
H3C      H      0.051950000000     0.186200000000     0.276250000000     0          
N1       N      0.484160000000     0.204865000000     0.341390000000     0          
C1       C      0.311475000000     0.188525000000     0.003950000000     0          
C2       C      0.343750000000     0.184255000000     0.449570000000     0          
H2       H      0.361700000000     0.188850000000     0.429450000000     0          
C3       C      0.296950000000     0.203050000000     0.042750000000     0          
N1       N      0.341390000000     0.204865000000     0.484160000000     0          
Zn1      Zn     0.375000000000     0.250000000000     0.000000000000     0          
C1       C      0.188525000000     0.188525000000     0.496050000000     0          
C2       C      0.184255000000     0.156250000000     0.050430000000     0          
H2       H      0.188850000000     0.138300000000     0.070550000000     0          
C3       C      0.203050000000     0.203050000000     0.457250000000     0          
H3A      H      0.229350000000     0.212850000000     0.460100000000     0          
H3B      H      0.202900000000     0.181800000000     0.438600000000     0          
H3C      H      0.186200000000     0.223750000000     0.448050000000     0          
N1       N      0.204865000000     0.158610000000     0.015840000000     0          
Zn1      Zn     0.250000000000     0.125000000000     0.000000000000     0          
C1       C      0.188525000000     0.311475000000     0.003950000000     0          
C2       C      0.156250000000     0.315745000000     0.449570000000     0          
H2       H      0.138300000000     0.311150000000     0.429450000000     0          
C3       C      0.203050000000     0.296950000000     0.042750000000     0          
N1       N      0.158610000000     0.295135000000     0.484160000000     0          
Zn1      Zn     0.125000000000     0.250000000000     0.000000000000     0          
C1       C      0.311475000000     0.311475000000     0.496050000000     0          
C2       C      0.315745000000     0.343750000000     0.050430000000     0          
H2       H      0.311150000000     0.361700000000     0.070550000000     0          
C3       C      0.296950000000     0.296950000000     0.457250000000     0          
H3A      H      0.270650000000     0.287150000000     0.460100000000     0          
H3B      H      0.297100000000     0.318200000000     0.438600000000     0          
H3C      H      0.313800000000     0.276250000000     0.448050000000     0          
N1       N      0.295135000000     0.341390000000     0.015840000000     0          
Zn1      Zn     0.250000000000     0.375000000000     0.000000000000     0          
C2       C      0.343750000000     0.315745000000     0.050430000000     0          
H2       H      0.361700000000     0.311150000000     0.070550000000     0          
N1       N      0.341390000000     0.295135000000     0.015840000000     0          
C2       C      0.315745000000     0.156250000000     0.449570000000     0          
H2       H      0.311150000000     0.138300000000     0.429450000000     0          
H3A      H      0.270650000000     0.212850000000     0.039900000000     0          
H3B      H      0.297100000000     0.181800000000     0.061400000000     0          
H3C      H      0.313800000000     0.223750000000     0.051950000000     0          
N1       N      0.295135000000     0.158610000000     0.484160000000     0          
C2       C      0.156250000000     0.184255000000     0.050430000000     0          
H2       H      0.138300000000     0.188850000000     0.070550000000     0          
N1       N      0.158610000000     0.204865000000     0.015840000000     0          
C2       C      0.184255000000     0.343750000000     0.449570000000     0          
H2       H      0.188850000000     0.361700000000     0.429450000000     0          
H3A      H      0.229350000000     0.287150000000     0.039900000000     0          
H3B      H      0.202900000000     0.318200000000     0.061400000000     0          
H3C      H      0.186200000000     0.276250000000     0.051950000000     0          
N1       N      0.204865000000     0.341390000000     0.484160000000     0          
C2       C      0.449570000000     0.343750000000     0.184255000000     0          
H2       H      0.429450000000     0.361700000000     0.188850000000     0          
H3A      H      0.039900000000     0.287150000000     0.229350000000     0          
H3B      H      0.061400000000     0.318200000000     0.202900000000     0          
H3C      H      0.051950000000     0.276250000000     0.186200000000     0          
N1       N      0.484160000000     0.341390000000     0.204865000000     0          
Zn1      Zn     0.000000000000     0.375000000000     0.250000000000     0          
C2       C      0.449570000000     0.156250000000     0.315745000000     0          
H2       H      0.429450000000     0.138300000000     0.311150000000     0          
N1       N      0.484160000000     0.158610000000     0.295135000000     0          
Zn1      Zn     0.000000000000     0.125000000000     0.250000000000     0          
C2       C      0.156250000000     0.050430000000     0.184255000000     0          
H2       H      0.138300000000     0.070550000000     0.188850000000     0          
H3A      H      0.212850000000     0.460100000000     0.229350000000     0          
H3B      H      0.181800000000     0.438600000000     0.202900000000     0          
H3C      H      0.223750000000     0.448050000000     0.186200000000     0          
N1       N      0.158610000000     0.015840000000     0.204865000000     0          
Zn1      Zn     0.125000000000     0.000000000000     0.250000000000     0          
C2       C      0.050430000000     0.343750000000     0.315745000000     0          
H2       H      0.070550000000     0.361700000000     0.311150000000     0          
H3A      H      0.460100000000     0.287150000000     0.270650000000     0          
H3B      H      0.438600000000     0.318200000000     0.297100000000     0          
H3C      H      0.448050000000     0.276250000000     0.313800000000     0          
N1       N      0.015840000000     0.341390000000     0.295135000000     0          
C2       C      0.343750000000     0.449570000000     0.184255000000     0          
H2       H      0.361700000000     0.429450000000     0.188850000000     0          
N1       N      0.341390000000     0.484160000000     0.204865000000     0          
Zn1      Zn     0.375000000000     0.000000000000     0.250000000000     0          
C2       C      0.050430000000     0.156250000000     0.184255000000     0          
H2       H      0.070550000000     0.138300000000     0.188850000000     0          
N1       N      0.015840000000     0.158610000000     0.204865000000     0          
C2       C      0.156250000000     0.449570000000     0.315745000000     0          
H2       H      0.138300000000     0.429450000000     0.311150000000     0          
H3A      H      0.212850000000     0.039900000000     0.270650000000     0          
H3B      H      0.181800000000     0.061400000000     0.297100000000     0          
H3C      H      0.223750000000     0.051950000000     0.313800000000     0          
N1       N      0.158610000000     0.484160000000     0.295135000000     0          
C2       C      0.343750000000     0.050430000000     0.315745000000     0          
H2       H      0.361700000000     0.070550000000     0.311150000000     0          
N1       N      0.341390000000     0.015840000000     0.295135000000     0          
C1       C      0.438525000000     0.253950000000     0.061475000000     0          
C2       C      0.434255000000     0.199570000000     0.093750000000     0          
H2       H      0.438850000000     0.179450000000     0.111700000000     0          
C3       C      0.453050000000     0.292750000000     0.046950000000     0          
H3A      H      0.479350000000     0.289900000000     0.037150000000     0          
H3B      H      0.452900000000     0.311400000000     0.068200000000     0          
H3C      H      0.436200000000     0.301950000000     0.026250000000     0          
N1       N      0.454865000000     0.234160000000     0.091390000000     0          
C1       C      0.253950000000     0.061475000000     0.438525000000     0          
C2       C      0.199570000000     0.065745000000     0.406250000000     0          
H2       H      0.179450000000     0.061150000000     0.388300000000     0          
C3       C      0.292750000000     0.046950000000     0.453050000000     0          
N1       N      0.234160000000     0.045135000000     0.408610000000     0          
C1       C      0.061475000000     0.246050000000     0.061475000000     0          
C2       C      0.065745000000     0.300430000000     0.093750000000     0          
H2       H      0.061150000000     0.320550000000     0.111700000000     0          
C3       C      0.046950000000     0.207250000000     0.046950000000     0          
H3A      H      0.020650000000     0.210100000000     0.037150000000     0          
H3B      H      0.047100000000     0.188600000000     0.068200000000     0          
H3C      H      0.063800000000     0.198050000000     0.026250000000     0          
N1       N      0.045135000000     0.265840000000     0.091390000000     0          
C1       C      0.246050000000     0.438525000000     0.438525000000     0          
C2       C      0.300430000000     0.434255000000     0.406250000000     0          
H2       H      0.320550000000     0.438850000000     0.388300000000     0          
C3       C      0.207250000000     0.453050000000     0.453050000000     0          
H3A      H      0.210100000000     0.479350000000     0.462850000000     0          
H3B      H      0.188600000000     0.452900000000     0.431800000000     0          
H3C      H      0.198050000000     0.436200000000     0.473750000000     0          
N1       N      0.265840000000     0.454865000000     0.408610000000     0          
C1       C      0.438525000000     0.246050000000     0.438525000000     0          
C2       C      0.434255000000     0.300430000000     0.406250000000     0          
H2       H      0.438850000000     0.320550000000     0.388300000000     0          
C3       C      0.453050000000     0.207250000000     0.453050000000     0          
H3A      H      0.479350000000     0.210100000000     0.462850000000     0          
H3B      H      0.452900000000     0.188600000000     0.431800000000     0          
H3C      H      0.436200000000     0.198050000000     0.473750000000     0          
N1       N      0.454865000000     0.265840000000     0.408610000000     0          
C1       C      0.246050000000     0.061475000000     0.061475000000     0          
C2       C      0.300430000000     0.065745000000     0.093750000000     0          
H2       H      0.320550000000     0.061150000000     0.111700000000     0          
C3       C      0.207250000000     0.046950000000     0.046950000000     0          
N1       N      0.265840000000     0.045135000000     0.091390000000     0          
C1       C      0.061475000000     0.253950000000     0.438525000000     0          
C2       C      0.065745000000     0.199570000000     0.406250000000     0          
H2       H      0.061150000000     0.179450000000     0.388300000000     0          
C3       C      0.046950000000     0.292750000000     0.453050000000     0          
N1       N      0.045135000000     0.234160000000     0.408610000000     0          
C1       C      0.253950000000     0.438525000000     0.061475000000     0          
C2       C      0.199570000000     0.434255000000     0.093750000000     0          
H2       H      0.179450000000     0.438850000000     0.111700000000     0          
C3       C      0.292750000000     0.453050000000     0.046950000000     0          
N1       N      0.234160000000     0.454865000000     0.091390000000     0          
C1       C      0.061475000000     0.438525000000     0.253950000000     0          
C2       C      0.093750000000     0.434255000000     0.199570000000     0          
H2       H      0.111700000000     0.438850000000     0.179450000000     0          
C3       C      0.046950000000     0.453050000000     0.292750000000     0          
N1       N      0.091390000000     0.454865000000     0.234160000000     0          
C1       C      0.438525000000     0.438525000000     0.246050000000     0          
C2       C      0.434255000000     0.406250000000     0.300430000000     0          
H2       H      0.438850000000     0.388300000000     0.320550000000     0          
C3       C      0.453050000000     0.453050000000     0.207250000000     0          
H3A      H      0.479350000000     0.462850000000     0.210100000000     0          
H3B      H      0.452900000000     0.431800000000     0.188600000000     0          
H3C      H      0.436200000000     0.473750000000     0.198050000000     0          
N1       N      0.454865000000     0.408610000000     0.265840000000     0          
C1       C      0.438525000000     0.061475000000     0.253950000000     0          
C2       C      0.406250000000     0.065745000000     0.199570000000     0          
H2       H      0.388300000000     0.061150000000     0.179450000000     0          
C3       C      0.453050000000     0.046950000000     0.292750000000     0          
N1       N      0.408610000000     0.045135000000     0.234160000000     0          
C1       C      0.061475000000     0.061475000000     0.246050000000     0          
C2       C      0.065745000000     0.093750000000     0.300430000000     0          
H2       H      0.061150000000     0.111700000000     0.320550000000     0          
C3       C      0.046950000000     0.046950000000     0.207250000000     0          
H3A      H      0.020650000000     0.037150000000     0.210100000000     0          
H3B      H      0.047100000000     0.068200000000     0.188600000000     0          
H3C      H      0.063800000000     0.026250000000     0.198050000000     0          
N1       N      0.045135000000     0.091390000000     0.265840000000     0          
C2       C      0.093750000000     0.065745000000     0.300430000000     0          
H2       H      0.111700000000     0.061150000000     0.320550000000     0          
N1       N      0.091390000000     0.045135000000     0.265840000000     0          
C2       C      0.065745000000     0.406250000000     0.199570000000     0          
H2       H      0.061150000000     0.388300000000     0.179450000000     0          
H3A      H      0.020650000000     0.462850000000     0.289900000000     0          
H3B      H      0.047100000000     0.431800000000     0.311400000000     0          
H3C      H      0.063800000000     0.473750000000     0.301950000000     0          
N1       N      0.045135000000     0.408610000000     0.234160000000     0          
C2       C      0.406250000000     0.434255000000     0.300430000000     0          
H2       H      0.388300000000     0.438850000000     0.320550000000     0          
N1       N      0.408610000000     0.454865000000     0.265840000000     0          
C2       C      0.434255000000     0.093750000000     0.199570000000     0          
H2       H      0.438850000000     0.111700000000     0.179450000000     0          
H3A      H      0.479350000000     0.037150000000     0.289900000000     0          
H3B      H      0.452900000000     0.068200000000     0.311400000000     0          
H3C      H      0.436200000000     0.026250000000     0.301950000000     0          
N1       N      0.454865000000     0.091390000000     0.234160000000     0          
C2       C      0.199570000000     0.093750000000     0.434255000000     0          
H2       H      0.179450000000     0.111700000000     0.438850000000     0          
H3A      H      0.289900000000     0.037150000000     0.479350000000     0          
H3B      H      0.311400000000     0.068200000000     0.452900000000     0          
H3C      H      0.301950000000     0.026250000000     0.436200000000     0          
N1       N      0.234160000000     0.091390000000     0.454865000000     0          
C2       C      0.199570000000     0.406250000000     0.065745000000     0          
H2       H      0.179450000000     0.388300000000     0.061150000000     0          
H3A      H      0.289900000000     0.462850000000     0.020650000000     0          
H3B      H      0.311400000000     0.431800000000     0.047100000000     0          
H3C      H      0.301950000000     0.473750000000     0.063800000000     0          
N1       N      0.234160000000     0.408610000000     0.045135000000     0          
C2       C      0.406250000000     0.300430000000     0.434255000000     0          
H2       H      0.388300000000     0.320550000000     0.438850000000     0          
N1       N      0.408610000000     0.265840000000     0.454865000000     0          
C2       C      0.300430000000     0.093750000000     0.065745000000     0          
H2       H      0.320550000000     0.111700000000     0.061150000000     0          
H3A      H      0.210100000000     0.037150000000     0.020650000000     0          
H3B      H      0.188600000000     0.068200000000     0.047100000000     0          
H3C      H      0.198050000000     0.026250000000     0.063800000000     0          
N1       N      0.265840000000     0.091390000000     0.045135000000     0          
C2       C      0.093750000000     0.199570000000     0.434255000000     0          
H2       H      0.111700000000     0.179450000000     0.438850000000     0          
H3A      H      0.037150000000     0.289900000000     0.479350000000     0          
H3B      H      0.068200000000     0.311400000000     0.452900000000     0          
H3C      H      0.026250000000     0.301950000000     0.436200000000     0          
N1       N      0.091390000000     0.234160000000     0.454865000000     0          
C2       C      0.300430000000     0.406250000000     0.434255000000     0          
H2       H      0.320550000000     0.388300000000     0.438850000000     0          
N1       N      0.265840000000     0.408610000000     0.454865000000     0          
C2       C      0.406250000000     0.199570000000     0.065745000000     0          
H2       H      0.388300000000     0.179450000000     0.061150000000     0          
N1       N      0.408610000000     0.234160000000     0.045135000000     0          
C2       C      0.093750000000     0.300430000000     0.065745000000     0          
H2       H      0.111700000000     0.320550000000     0.061150000000     0          
N1       N      0.091390000000     0.265840000000     0.045135000000     0          
C1       C      0.188525000000     0.003950000000     0.811475000000     0          
C2       C      0.184255000000     0.449570000000     0.843750000000     0          
H2       H      0.188850000000     0.429450000000     0.861700000000     0          
C3       C      0.203050000000     0.042750000000     0.796950000000     0          
N1       N      0.204865000000     0.484160000000     0.841390000000     0          
Zn1      Zn     0.250000000000     0.000000000000     0.875000000000     0          
C1       C      0.003950000000     0.311475000000     0.688525000000     0          
C2       C      0.449570000000     0.315745000000     0.656250000000     0          
H2       H      0.429450000000     0.311150000000     0.638300000000     0          
C3       C      0.042750000000     0.296950000000     0.703050000000     0          
N1       N      0.484160000000     0.295135000000     0.658610000000     0          
Zn1      Zn     0.000000000000     0.250000000000     0.625000000000     0          
C1       C      0.311475000000     0.496050000000     0.811475000000     0          
C2       C      0.315745000000     0.050430000000     0.843750000000     0          
H2       H      0.311150000000     0.070550000000     0.861700000000     0          
C3       C      0.296950000000     0.457250000000     0.796950000000     0          
H3A      H      0.270650000000     0.460100000000     0.787150000000     0          
H3B      H      0.297100000000     0.438600000000     0.818200000000     0          
H3C      H      0.313800000000     0.448050000000     0.776250000000     0          
N1       N      0.295135000000     0.015840000000     0.841390000000     0          
C1       C      0.496050000000     0.188525000000     0.688525000000     0          
C2       C      0.050430000000     0.184255000000     0.656250000000     0          
H2       H      0.070550000000     0.188850000000     0.638300000000     0          
C3       C      0.457250000000     0.203050000000     0.703050000000     0          
H3A      H      0.460100000000     0.229350000000     0.712850000000     0          
H3B      H      0.438600000000     0.202900000000     0.681800000000     0          
H3C      H      0.448050000000     0.186200000000     0.723750000000     0          
N1       N      0.015840000000     0.204865000000     0.658610000000     0          
C1       C      0.188525000000     0.496050000000     0.688525000000     0          
C2       C      0.184255000000     0.050430000000     0.656250000000     0          
H2       H      0.188850000000     0.070550000000     0.638300000000     0          
C3       C      0.203050000000     0.457250000000     0.703050000000     0          
N1       N      0.204865000000     0.015840000000     0.658610000000     0          
Zn1      Zn     0.250000000000     0.000000000000     0.625000000000     0          
C1       C      0.496050000000     0.311475000000     0.811475000000     0          
C2       C      0.050430000000     0.315745000000     0.843750000000     0          
H2       H      0.070550000000     0.311150000000     0.861700000000     0          
C3       C      0.457250000000     0.296950000000     0.796950000000     0          
N1       N      0.015840000000     0.295135000000     0.841390000000     0          
Zn1      Zn     0.000000000000     0.250000000000     0.875000000000     0          
C1       C      0.311475000000     0.003950000000     0.688525000000     0          
C2       C      0.315745000000     0.449570000000     0.656250000000     0          
H2       H      0.311150000000     0.429450000000     0.638300000000     0          
C3       C      0.296950000000     0.042750000000     0.703050000000     0          
H3A      H      0.270650000000     0.039900000000     0.712850000000     0          
H3B      H      0.297100000000     0.061400000000     0.681800000000     0          
H3C      H      0.313800000000     0.051950000000     0.723750000000     0          
N1       N      0.295135000000     0.484160000000     0.658610000000     0          
C1       C      0.003950000000     0.188525000000     0.811475000000     0          
C2       C      0.449570000000     0.184255000000     0.843750000000     0          
H2       H      0.429450000000     0.188850000000     0.861700000000     0          
C3       C      0.042750000000     0.203050000000     0.796950000000     0          
H3A      H      0.039900000000     0.229350000000     0.787150000000     0          
H3B      H      0.061400000000     0.202900000000     0.818200000000     0          
H3C      H      0.051950000000     0.186200000000     0.776250000000     0          
N1       N      0.484160000000     0.204865000000     0.841390000000     0          
C1       C      0.311475000000     0.188525000000     0.503950000000     0          
C2       C      0.343750000000     0.184255000000     0.949570000000     0          
H2       H      0.361700000000     0.188850000000     0.929450000000     0          
C3       C      0.296950000000     0.203050000000     0.542750000000     0          
N1       N      0.341390000000     0.204865000000     0.984160000000     0          
Zn1      Zn     0.375000000000     0.250000000000     0.500000000000     0          
C1       C      0.188525000000     0.188525000000     0.996050000000     0          
C2       C      0.184255000000     0.156250000000     0.550430000000     0          
H2       H      0.188850000000     0.138300000000     0.570550000000     0          
C3       C      0.203050000000     0.203050000000     0.957250000000     0          
H3A      H      0.229350000000     0.212850000000     0.960100000000     0          
H3B      H      0.202900000000     0.181800000000     0.938600000000     0          
H3C      H      0.186200000000     0.223750000000     0.948050000000     0          
N1       N      0.204865000000     0.158610000000     0.515840000000     0          
Zn1      Zn     0.250000000000     0.125000000000     0.500000000000     0          
C1       C      0.188525000000     0.311475000000     0.503950000000     0          
C2       C      0.156250000000     0.315745000000     0.949570000000     0          
H2       H      0.138300000000     0.311150000000     0.929450000000     0          
C3       C      0.203050000000     0.296950000000     0.542750000000     0          
N1       N      0.158610000000     0.295135000000     0.984160000000     0          
Zn1      Zn     0.125000000000     0.250000000000     0.500000000000     0          
C1       C      0.311475000000     0.311475000000     0.996050000000     0          
C2       C      0.315745000000     0.343750000000     0.550430000000     0          
H2       H      0.311150000000     0.361700000000     0.570550000000     0          
C3       C      0.296950000000     0.296950000000     0.957250000000     0          
H3A      H      0.270650000000     0.287150000000     0.960100000000     0          
H3B      H      0.297100000000     0.318200000000     0.938600000000     0          
H3C      H      0.313800000000     0.276250000000     0.948050000000     0          
N1       N      0.295135000000     0.341390000000     0.515840000000     0          
Zn1      Zn     0.250000000000     0.375000000000     0.500000000000     0          
C2       C      0.343750000000     0.315745000000     0.550430000000     0          
H2       H      0.361700000000     0.311150000000     0.570550000000     0          
N1       N      0.341390000000     0.295135000000     0.515840000000     0          
C2       C      0.315745000000     0.156250000000     0.949570000000     0          
H2       H      0.311150000000     0.138300000000     0.929450000000     0          
H3A      H      0.270650000000     0.212850000000     0.539900000000     0          
H3B      H      0.297100000000     0.181800000000     0.561400000000     0          
H3C      H      0.313800000000     0.223750000000     0.551950000000     0          
N1       N      0.295135000000     0.158610000000     0.984160000000     0          
C2       C      0.156250000000     0.184255000000     0.550430000000     0          
H2       H      0.138300000000     0.188850000000     0.570550000000     0          
N1       N      0.158610000000     0.204865000000     0.515840000000     0          
C2       C      0.184255000000     0.343750000000     0.949570000000     0          
H2       H      0.188850000000     0.361700000000     0.929450000000     0          
H3A      H      0.229350000000     0.287150000000     0.539900000000     0          
H3B      H      0.202900000000     0.318200000000     0.561400000000     0          
H3C      H      0.186200000000     0.276250000000     0.551950000000     0          
N1       N      0.204865000000     0.341390000000     0.984160000000     0          
C2       C      0.449570000000     0.343750000000     0.684255000000     0          
H2       H      0.429450000000     0.361700000000     0.688850000000     0          
H3A      H      0.039900000000     0.287150000000     0.729350000000     0          
H3B      H      0.061400000000     0.318200000000     0.702900000000     0          
H3C      H      0.051950000000     0.276250000000     0.686200000000     0          
N1       N      0.484160000000     0.341390000000     0.704865000000     0          
Zn1      Zn     0.000000000000     0.375000000000     0.750000000000     0          
C2       C      0.449570000000     0.156250000000     0.815745000000     0          
H2       H      0.429450000000     0.138300000000     0.811150000000     0          
N1       N      0.484160000000     0.158610000000     0.795135000000     0          
Zn1      Zn     0.000000000000     0.125000000000     0.750000000000     0          
C2       C      0.156250000000     0.050430000000     0.684255000000     0          
H2       H      0.138300000000     0.070550000000     0.688850000000     0          
H3A      H      0.212850000000     0.460100000000     0.729350000000     0          
H3B      H      0.181800000000     0.438600000000     0.702900000000     0          
H3C      H      0.223750000000     0.448050000000     0.686200000000     0          
N1       N      0.158610000000     0.015840000000     0.704865000000     0          
Zn1      Zn     0.125000000000     0.000000000000     0.750000000000     0          
C2       C      0.050430000000     0.343750000000     0.815745000000     0          
H2       H      0.070550000000     0.361700000000     0.811150000000     0          
H3A      H      0.460100000000     0.287150000000     0.770650000000     0          
H3B      H      0.438600000000     0.318200000000     0.797100000000     0          
H3C      H      0.448050000000     0.276250000000     0.813800000000     0          
N1       N      0.015840000000     0.341390000000     0.795135000000     0          
C2       C      0.343750000000     0.449570000000     0.684255000000     0          
H2       H      0.361700000000     0.429450000000     0.688850000000     0          
N1       N      0.341390000000     0.484160000000     0.704865000000     0          
Zn1      Zn     0.375000000000     0.000000000000     0.750000000000     0          
C2       C      0.050430000000     0.156250000000     0.684255000000     0          
H2       H      0.070550000000     0.138300000000     0.688850000000     0          
N1       N      0.015840000000     0.158610000000     0.704865000000     0          
C2       C      0.156250000000     0.449570000000     0.815745000000     0          
H2       H      0.138300000000     0.429450000000     0.811150000000     0          
H3A      H      0.212850000000     0.039900000000     0.770650000000     0          
H3B      H      0.181800000000     0.061400000000     0.797100000000     0          
H3C      H      0.223750000000     0.051950000000     0.813800000000     0          
N1       N      0.158610000000     0.484160000000     0.795135000000     0          
C2       C      0.343750000000     0.050430000000     0.815745000000     0          
H2       H      0.361700000000     0.070550000000     0.811150000000     0          
N1       N      0.341390000000     0.015840000000     0.795135000000     0          
C1       C      0.438525000000     0.253950000000     0.561475000000     0          
C2       C      0.434255000000     0.199570000000     0.593750000000     0          
H2       H      0.438850000000     0.179450000000     0.611700000000     0          
C3       C      0.453050000000     0.292750000000     0.546950000000     0          
H3A      H      0.479350000000     0.289900000000     0.537150000000     0          
H3B      H      0.452900000000     0.311400000000     0.568200000000     0          
H3C      H      0.436200000000     0.301950000000     0.526250000000     0          
N1       N      0.454865000000     0.234160000000     0.591390000000     0          
C1       C      0.253950000000     0.061475000000     0.938525000000     0          
C2       C      0.199570000000     0.065745000000     0.906250000000     0          
H2       H      0.179450000000     0.061150000000     0.888300000000     0          
C3       C      0.292750000000     0.046950000000     0.953050000000     0          
N1       N      0.234160000000     0.045135000000     0.908610000000     0          
C1       C      0.061475000000     0.246050000000     0.561475000000     0          
C2       C      0.065745000000     0.300430000000     0.593750000000     0          
H2       H      0.061150000000     0.320550000000     0.611700000000     0          
C3       C      0.046950000000     0.207250000000     0.546950000000     0          
H3A      H      0.020650000000     0.210100000000     0.537150000000     0          
H3B      H      0.047100000000     0.188600000000     0.568200000000     0          
H3C      H      0.063800000000     0.198050000000     0.526250000000     0          
N1       N      0.045135000000     0.265840000000     0.591390000000     0          
C1       C      0.246050000000     0.438525000000     0.938525000000     0          
C2       C      0.300430000000     0.434255000000     0.906250000000     0          
H2       H      0.320550000000     0.438850000000     0.888300000000     0          
C3       C      0.207250000000     0.453050000000     0.953050000000     0          
H3A      H      0.210100000000     0.479350000000     0.962850000000     0          
H3B      H      0.188600000000     0.452900000000     0.931800000000     0          
H3C      H      0.198050000000     0.436200000000     0.973750000000     0          
N1       N      0.265840000000     0.454865000000     0.908610000000     0          
C1       C      0.438525000000     0.246050000000     0.938525000000     0          
C2       C      0.434255000000     0.300430000000     0.906250000000     0          
H2       H      0.438850000000     0.320550000000     0.888300000000     0          
C3       C      0.453050000000     0.207250000000     0.953050000000     0          
H3A      H      0.479350000000     0.210100000000     0.962850000000     0          
H3B      H      0.452900000000     0.188600000000     0.931800000000     0          
H3C      H      0.436200000000     0.198050000000     0.973750000000     0          
N1       N      0.454865000000     0.265840000000     0.908610000000     0          
C1       C      0.246050000000     0.061475000000     0.561475000000     0          
C2       C      0.300430000000     0.065745000000     0.593750000000     0          
H2       H      0.320550000000     0.061150000000     0.611700000000     0          
C3       C      0.207250000000     0.046950000000     0.546950000000     0          
N1       N      0.265840000000     0.045135000000     0.591390000000     0          
C1       C      0.061475000000     0.253950000000     0.938525000000     0          
C2       C      0.065745000000     0.199570000000     0.906250000000     0          
H2       H      0.061150000000     0.179450000000     0.888300000000     0          
C3       C      0.046950000000     0.292750000000     0.953050000000     0          
N1       N      0.045135000000     0.234160000000     0.908610000000     0          
C1       C      0.253950000000     0.438525000000     0.561475000000     0          
C2       C      0.199570000000     0.434255000000     0.593750000000     0          
H2       H      0.179450000000     0.438850000000     0.611700000000     0          
C3       C      0.292750000000     0.453050000000     0.546950000000     0          
N1       N      0.234160000000     0.454865000000     0.591390000000     0          
C1       C      0.061475000000     0.438525000000     0.753950000000     0          
C2       C      0.093750000000     0.434255000000     0.699570000000     0          
H2       H      0.111700000000     0.438850000000     0.679450000000     0          
C3       C      0.046950000000     0.453050000000     0.792750000000     0          
N1       N      0.091390000000     0.454865000000     0.734160000000     0          
C1       C      0.438525000000     0.438525000000     0.746050000000     0          
C2       C      0.434255000000     0.406250000000     0.800430000000     0          
H2       H      0.438850000000     0.388300000000     0.820550000000     0          
C3       C      0.453050000000     0.453050000000     0.707250000000     0          
H3A      H      0.479350000000     0.462850000000     0.710100000000     0          
H3B      H      0.452900000000     0.431800000000     0.688600000000     0          
H3C      H      0.436200000000     0.473750000000     0.698050000000     0          
N1       N      0.454865000000     0.408610000000     0.765840000000     0          
C1       C      0.438525000000     0.061475000000     0.753950000000     0          
C2       C      0.406250000000     0.065745000000     0.699570000000     0          
H2       H      0.388300000000     0.061150000000     0.679450000000     0          
C3       C      0.453050000000     0.046950000000     0.792750000000     0          
N1       N      0.408610000000     0.045135000000     0.734160000000     0          
C1       C      0.061475000000     0.061475000000     0.746050000000     0          
C2       C      0.065745000000     0.093750000000     0.800430000000     0          
H2       H      0.061150000000     0.111700000000     0.820550000000     0          
C3       C      0.046950000000     0.046950000000     0.707250000000     0          
H3A      H      0.020650000000     0.037150000000     0.710100000000     0          
H3B      H      0.047100000000     0.068200000000     0.688600000000     0          
H3C      H      0.063800000000     0.026250000000     0.698050000000     0          
N1       N      0.045135000000     0.091390000000     0.765840000000     0          
C2       C      0.093750000000     0.065745000000     0.800430000000     0          
H2       H      0.111700000000     0.061150000000     0.820550000000     0          
N1       N      0.091390000000     0.045135000000     0.765840000000     0          
C2       C      0.065745000000     0.406250000000     0.699570000000     0          
H2       H      0.061150000000     0.388300000000     0.679450000000     0          
H3A      H      0.020650000000     0.462850000000     0.789900000000     0          
H3B      H      0.047100000000     0.431800000000     0.811400000000     0          
H3C      H      0.063800000000     0.473750000000     0.801950000000     0          
N1       N      0.045135000000     0.408610000000     0.734160000000     0          
C2       C      0.406250000000     0.434255000000     0.800430000000     0          
H2       H      0.388300000000     0.438850000000     0.820550000000     0          
N1       N      0.408610000000     0.454865000000     0.765840000000     0          
C2       C      0.434255000000     0.093750000000     0.699570000000     0          
H2       H      0.438850000000     0.111700000000     0.679450000000     0          
H3A      H      0.479350000000     0.037150000000     0.789900000000     0          
H3B      H      0.452900000000     0.068200000000     0.811400000000     0          
H3C      H      0.436200000000     0.026250000000     0.801950000000     0          
N1       N      0.454865000000     0.091390000000     0.734160000000     0          
C2       C      0.199570000000     0.093750000000     0.934255000000     0          
H2       H      0.179450000000     0.111700000000     0.938850000000     0          
H3A      H      0.289900000000     0.037150000000     0.979350000000     0          
H3B      H      0.311400000000     0.068200000000     0.952900000000     0          
H3C      H      0.301950000000     0.026250000000     0.936200000000     0          
N1       N      0.234160000000     0.091390000000     0.954865000000     0          
C2       C      0.199570000000     0.406250000000     0.565745000000     0          
H2       H      0.179450000000     0.388300000000     0.561150000000     0          
H3A      H      0.289900000000     0.462850000000     0.520650000000     0          
H3B      H      0.311400000000     0.431800000000     0.547100000000     0          
H3C      H      0.301950000000     0.473750000000     0.563800000000     0          
N1       N      0.234160000000     0.408610000000     0.545135000000     0          
C2       C      0.406250000000     0.300430000000     0.934255000000     0          
H2       H      0.388300000000     0.320550000000     0.938850000000     0          
N1       N      0.408610000000     0.265840000000     0.954865000000     0          
C2       C      0.300430000000     0.093750000000     0.565745000000     0          
H2       H      0.320550000000     0.111700000000     0.561150000000     0          
H3A      H      0.210100000000     0.037150000000     0.520650000000     0          
H3B      H      0.188600000000     0.068200000000     0.547100000000     0          
H3C      H      0.198050000000     0.026250000000     0.563800000000     0          
N1       N      0.265840000000     0.091390000000     0.545135000000     0          
C2       C      0.093750000000     0.199570000000     0.934255000000     0          
H2       H      0.111700000000     0.179450000000     0.938850000000     0          
H3A      H      0.037150000000     0.289900000000     0.979350000000     0          
H3B      H      0.068200000000     0.311400000000     0.952900000000     0          
H3C      H      0.026250000000     0.301950000000     0.936200000000     0          
N1       N      0.091390000000     0.234160000000     0.954865000000     0          
C2       C      0.300430000000     0.406250000000     0.934255000000     0          
H2       H      0.320550000000     0.388300000000     0.938850000000     0          
N1       N      0.265840000000     0.408610000000     0.954865000000     0          
C2       C      0.406250000000     0.199570000000     0.565745000000     0          
H2       H      0.388300000000     0.179450000000     0.561150000000     0          
N1       N      0.408610000000     0.234160000000     0.545135000000     0          
C2       C      0.093750000000     0.300430000000     0.565745000000     0          
H2       H      0.111700000000     0.320550000000     0.561150000000     0          
N1       N      0.091390000000     0.265840000000     0.545135000000     0          
C1       C      0.188525000000     0.503950000000     0.311475000000     0          
C2       C      0.184255000000     0.949570000000     0.343750000000     0          
H2       H      0.188850000000     0.929450000000     0.361700000000     0          
C3       C      0.203050000000     0.542750000000     0.296950000000     0          
N1       N      0.204865000000     0.984160000000     0.341390000000     0          
Zn1      Zn     0.250000000000     0.500000000000     0.375000000000     0          
C1       C      0.003950000000     0.811475000000     0.188525000000     0          
C2       C      0.449570000000     0.815745000000     0.156250000000     0          
H2       H      0.429450000000     0.811150000000     0.138300000000     0          
C3       C      0.042750000000     0.796950000000     0.203050000000     0          
N1       N      0.484160000000     0.795135000000     0.158610000000     0          
Zn1      Zn     0.000000000000     0.750000000000     0.125000000000     0          
C1       C      0.311475000000     0.996050000000     0.311475000000     0          
C2       C      0.315745000000     0.550430000000     0.343750000000     0          
H2       H      0.311150000000     0.570550000000     0.361700000000     0          
C3       C      0.296950000000     0.957250000000     0.296950000000     0          
H3A      H      0.270650000000     0.960100000000     0.287150000000     0          
H3B      H      0.297100000000     0.938600000000     0.318200000000     0          
H3C      H      0.313800000000     0.948050000000     0.276250000000     0          
N1       N      0.295135000000     0.515840000000     0.341390000000     0          
C1       C      0.496050000000     0.688525000000     0.188525000000     0          
C2       C      0.050430000000     0.684255000000     0.156250000000     0          
H2       H      0.070550000000     0.688850000000     0.138300000000     0          
C3       C      0.457250000000     0.703050000000     0.203050000000     0          
H3A      H      0.460100000000     0.729350000000     0.212850000000     0          
H3B      H      0.438600000000     0.702900000000     0.181800000000     0          
H3C      H      0.448050000000     0.686200000000     0.223750000000     0          
N1       N      0.015840000000     0.704865000000     0.158610000000     0          
C1       C      0.188525000000     0.996050000000     0.188525000000     0          
C2       C      0.184255000000     0.550430000000     0.156250000000     0          
H2       H      0.188850000000     0.570550000000     0.138300000000     0          
C3       C      0.203050000000     0.957250000000     0.203050000000     0          
N1       N      0.204865000000     0.515840000000     0.158610000000     0          
Zn1      Zn     0.250000000000     0.500000000000     0.125000000000     0          
C1       C      0.496050000000     0.811475000000     0.311475000000     0          
C2       C      0.050430000000     0.815745000000     0.343750000000     0          
H2       H      0.070550000000     0.811150000000     0.361700000000     0          
C3       C      0.457250000000     0.796950000000     0.296950000000     0          
N1       N      0.015840000000     0.795135000000     0.341390000000     0          
Zn1      Zn     0.000000000000     0.750000000000     0.375000000000     0          
C1       C      0.311475000000     0.503950000000     0.188525000000     0          
C2       C      0.315745000000     0.949570000000     0.156250000000     0          
H2       H      0.311150000000     0.929450000000     0.138300000000     0          
C3       C      0.296950000000     0.542750000000     0.203050000000     0          
H3A      H      0.270650000000     0.539900000000     0.212850000000     0          
H3B      H      0.297100000000     0.561400000000     0.181800000000     0          
H3C      H      0.313800000000     0.551950000000     0.223750000000     0          
N1       N      0.295135000000     0.984160000000     0.158610000000     0          
C1       C      0.003950000000     0.688525000000     0.311475000000     0          
C2       C      0.449570000000     0.684255000000     0.343750000000     0          
H2       H      0.429450000000     0.688850000000     0.361700000000     0          
C3       C      0.042750000000     0.703050000000     0.296950000000     0          
H3A      H      0.039900000000     0.729350000000     0.287150000000     0          
H3B      H      0.061400000000     0.702900000000     0.318200000000     0          
H3C      H      0.051950000000     0.686200000000     0.276250000000     0          
N1       N      0.484160000000     0.704865000000     0.341390000000     0          
C1       C      0.311475000000     0.688525000000     0.003950000000     0          
C2       C      0.343750000000     0.684255000000     0.449570000000     0          
H2       H      0.361700000000     0.688850000000     0.429450000000     0          
C3       C      0.296950000000     0.703050000000     0.042750000000     0          
N1       N      0.341390000000     0.704865000000     0.484160000000     0          
Zn1      Zn     0.375000000000     0.750000000000     0.000000000000     0          
C1       C      0.188525000000     0.688525000000     0.496050000000     0          
C2       C      0.184255000000     0.656250000000     0.050430000000     0          
H2       H      0.188850000000     0.638300000000     0.070550000000     0          
C3       C      0.203050000000     0.703050000000     0.457250000000     0          
H3A      H      0.229350000000     0.712850000000     0.460100000000     0          
H3B      H      0.202900000000     0.681800000000     0.438600000000     0          
H3C      H      0.186200000000     0.723750000000     0.448050000000     0          
N1       N      0.204865000000     0.658610000000     0.015840000000     0          
Zn1      Zn     0.250000000000     0.625000000000     0.000000000000     0          
C1       C      0.188525000000     0.811475000000     0.003950000000     0          
C2       C      0.156250000000     0.815745000000     0.449570000000     0          
H2       H      0.138300000000     0.811150000000     0.429450000000     0          
C3       C      0.203050000000     0.796950000000     0.042750000000     0          
N1       N      0.158610000000     0.795135000000     0.484160000000     0          
Zn1      Zn     0.125000000000     0.750000000000     0.000000000000     0          
C1       C      0.311475000000     0.811475000000     0.496050000000     0          
C2       C      0.315745000000     0.843750000000     0.050430000000     0          
H2       H      0.311150000000     0.861700000000     0.070550000000     0          
C3       C      0.296950000000     0.796950000000     0.457250000000     0          
H3A      H      0.270650000000     0.787150000000     0.460100000000     0          
H3B      H      0.297100000000     0.818200000000     0.438600000000     0          
H3C      H      0.313800000000     0.776250000000     0.448050000000     0          
N1       N      0.295135000000     0.841390000000     0.015840000000     0          
Zn1      Zn     0.250000000000     0.875000000000     0.000000000000     0          
C2       C      0.343750000000     0.815745000000     0.050430000000     0          
H2       H      0.361700000000     0.811150000000     0.070550000000     0          
N1       N      0.341390000000     0.795135000000     0.015840000000     0          
C2       C      0.315745000000     0.656250000000     0.449570000000     0          
H2       H      0.311150000000     0.638300000000     0.429450000000     0          
H3A      H      0.270650000000     0.712850000000     0.039900000000     0          
H3B      H      0.297100000000     0.681800000000     0.061400000000     0          
H3C      H      0.313800000000     0.723750000000     0.051950000000     0          
N1       N      0.295135000000     0.658610000000     0.484160000000     0          
C2       C      0.156250000000     0.684255000000     0.050430000000     0          
H2       H      0.138300000000     0.688850000000     0.070550000000     0          
N1       N      0.158610000000     0.704865000000     0.015840000000     0          
C2       C      0.184255000000     0.843750000000     0.449570000000     0          
H2       H      0.188850000000     0.861700000000     0.429450000000     0          
H3A      H      0.229350000000     0.787150000000     0.039900000000     0          
H3B      H      0.202900000000     0.818200000000     0.061400000000     0          
H3C      H      0.186200000000     0.776250000000     0.051950000000     0          
N1       N      0.204865000000     0.841390000000     0.484160000000     0          
C2       C      0.449570000000     0.843750000000     0.184255000000     0          
H2       H      0.429450000000     0.861700000000     0.188850000000     0          
H3A      H      0.039900000000     0.787150000000     0.229350000000     0          
H3B      H      0.061400000000     0.818200000000     0.202900000000     0          
H3C      H      0.051950000000     0.776250000000     0.186200000000     0          
N1       N      0.484160000000     0.841390000000     0.204865000000     0          
Zn1      Zn     0.000000000000     0.875000000000     0.250000000000     0          
C2       C      0.449570000000     0.656250000000     0.315745000000     0          
H2       H      0.429450000000     0.638300000000     0.311150000000     0          
N1       N      0.484160000000     0.658610000000     0.295135000000     0          
Zn1      Zn     0.000000000000     0.625000000000     0.250000000000     0          
C2       C      0.156250000000     0.550430000000     0.184255000000     0          
H2       H      0.138300000000     0.570550000000     0.188850000000     0          
H3A      H      0.212850000000     0.960100000000     0.229350000000     0          
H3B      H      0.181800000000     0.938600000000     0.202900000000     0          
H3C      H      0.223750000000     0.948050000000     0.186200000000     0          
N1       N      0.158610000000     0.515840000000     0.204865000000     0          
Zn1      Zn     0.125000000000     0.500000000000     0.250000000000     0          
C2       C      0.050430000000     0.843750000000     0.315745000000     0          
H2       H      0.070550000000     0.861700000000     0.311150000000     0          
H3A      H      0.460100000000     0.787150000000     0.270650000000     0          
H3B      H      0.438600000000     0.818200000000     0.297100000000     0          
H3C      H      0.448050000000     0.776250000000     0.313800000000     0          
N1       N      0.015840000000     0.841390000000     0.295135000000     0          
C2       C      0.343750000000     0.949570000000     0.184255000000     0          
H2       H      0.361700000000     0.929450000000     0.188850000000     0          
N1       N      0.341390000000     0.984160000000     0.204865000000     0          
Zn1      Zn     0.375000000000     0.500000000000     0.250000000000     0          
C2       C      0.050430000000     0.656250000000     0.184255000000     0          
H2       H      0.070550000000     0.638300000000     0.188850000000     0          
N1       N      0.015840000000     0.658610000000     0.204865000000     0          
C2       C      0.156250000000     0.949570000000     0.315745000000     0          
H2       H      0.138300000000     0.929450000000     0.311150000000     0          
H3A      H      0.212850000000     0.539900000000     0.270650000000     0          
H3B      H      0.181800000000     0.561400000000     0.297100000000     0          
H3C      H      0.223750000000     0.551950000000     0.313800000000     0          
N1       N      0.158610000000     0.984160000000     0.295135000000     0          
C2       C      0.343750000000     0.550430000000     0.315745000000     0          
H2       H      0.361700000000     0.570550000000     0.311150000000     0          
N1       N      0.341390000000     0.515840000000     0.295135000000     0          
C1       C      0.438525000000     0.753950000000     0.061475000000     0          
C2       C      0.434255000000     0.699570000000     0.093750000000     0          
H2       H      0.438850000000     0.679450000000     0.111700000000     0          
C3       C      0.453050000000     0.792750000000     0.046950000000     0          
H3A      H      0.479350000000     0.789900000000     0.037150000000     0          
H3B      H      0.452900000000     0.811400000000     0.068200000000     0          
H3C      H      0.436200000000     0.801950000000     0.026250000000     0          
N1       N      0.454865000000     0.734160000000     0.091390000000     0          
C1       C      0.253950000000     0.561475000000     0.438525000000     0          
C2       C      0.199570000000     0.565745000000     0.406250000000     0          
H2       H      0.179450000000     0.561150000000     0.388300000000     0          
C3       C      0.292750000000     0.546950000000     0.453050000000     0          
N1       N      0.234160000000     0.545135000000     0.408610000000     0          
C1       C      0.061475000000     0.746050000000     0.061475000000     0          
C2       C      0.065745000000     0.800430000000     0.093750000000     0          
H2       H      0.061150000000     0.820550000000     0.111700000000     0          
C3       C      0.046950000000     0.707250000000     0.046950000000     0          
H3A      H      0.020650000000     0.710100000000     0.037150000000     0          
H3B      H      0.047100000000     0.688600000000     0.068200000000     0          
H3C      H      0.063800000000     0.698050000000     0.026250000000     0          
N1       N      0.045135000000     0.765840000000     0.091390000000     0          
C1       C      0.246050000000     0.938525000000     0.438525000000     0          
C2       C      0.300430000000     0.934255000000     0.406250000000     0          
H2       H      0.320550000000     0.938850000000     0.388300000000     0          
C3       C      0.207250000000     0.953050000000     0.453050000000     0          
H3A      H      0.210100000000     0.979350000000     0.462850000000     0          
H3B      H      0.188600000000     0.952900000000     0.431800000000     0          
H3C      H      0.198050000000     0.936200000000     0.473750000000     0          
N1       N      0.265840000000     0.954865000000     0.408610000000     0          
C1       C      0.438525000000     0.746050000000     0.438525000000     0          
C2       C      0.434255000000     0.800430000000     0.406250000000     0          
H2       H      0.438850000000     0.820550000000     0.388300000000     0          
C3       C      0.453050000000     0.707250000000     0.453050000000     0          
H3A      H      0.479350000000     0.710100000000     0.462850000000     0          
H3B      H      0.452900000000     0.688600000000     0.431800000000     0          
H3C      H      0.436200000000     0.698050000000     0.473750000000     0          
N1       N      0.454865000000     0.765840000000     0.408610000000     0          
C1       C      0.246050000000     0.561475000000     0.061475000000     0          
C2       C      0.300430000000     0.565745000000     0.093750000000     0          
H2       H      0.320550000000     0.561150000000     0.111700000000     0          
C3       C      0.207250000000     0.546950000000     0.046950000000     0          
N1       N      0.265840000000     0.545135000000     0.091390000000     0          
C1       C      0.061475000000     0.753950000000     0.438525000000     0          
C2       C      0.065745000000     0.699570000000     0.406250000000     0          
H2       H      0.061150000000     0.679450000000     0.388300000000     0          
C3       C      0.046950000000     0.792750000000     0.453050000000     0          
N1       N      0.045135000000     0.734160000000     0.408610000000     0          
C1       C      0.253950000000     0.938525000000     0.061475000000     0          
C2       C      0.199570000000     0.934255000000     0.093750000000     0          
H2       H      0.179450000000     0.938850000000     0.111700000000     0          
C3       C      0.292750000000     0.953050000000     0.046950000000     0          
N1       N      0.234160000000     0.954865000000     0.091390000000     0          
C1       C      0.061475000000     0.938525000000     0.253950000000     0          
C2       C      0.093750000000     0.934255000000     0.199570000000     0          
H2       H      0.111700000000     0.938850000000     0.179450000000     0          
C3       C      0.046950000000     0.953050000000     0.292750000000     0          
N1       N      0.091390000000     0.954865000000     0.234160000000     0          
C1       C      0.438525000000     0.938525000000     0.246050000000     0          
C2       C      0.434255000000     0.906250000000     0.300430000000     0          
H2       H      0.438850000000     0.888300000000     0.320550000000     0          
C3       C      0.453050000000     0.953050000000     0.207250000000     0          
H3A      H      0.479350000000     0.962850000000     0.210100000000     0          
H3B      H      0.452900000000     0.931800000000     0.188600000000     0          
H3C      H      0.436200000000     0.973750000000     0.198050000000     0          
N1       N      0.454865000000     0.908610000000     0.265840000000     0          
C1       C      0.438525000000     0.561475000000     0.253950000000     0          
C2       C      0.406250000000     0.565745000000     0.199570000000     0          
H2       H      0.388300000000     0.561150000000     0.179450000000     0          
C3       C      0.453050000000     0.546950000000     0.292750000000     0          
N1       N      0.408610000000     0.545135000000     0.234160000000     0          
C1       C      0.061475000000     0.561475000000     0.246050000000     0          
C2       C      0.065745000000     0.593750000000     0.300430000000     0          
H2       H      0.061150000000     0.611700000000     0.320550000000     0          
C3       C      0.046950000000     0.546950000000     0.207250000000     0          
H3A      H      0.020650000000     0.537150000000     0.210100000000     0          
H3B      H      0.047100000000     0.568200000000     0.188600000000     0          
H3C      H      0.063800000000     0.526250000000     0.198050000000     0          
N1       N      0.045135000000     0.591390000000     0.265840000000     0          
C2       C      0.093750000000     0.565745000000     0.300430000000     0          
H2       H      0.111700000000     0.561150000000     0.320550000000     0          
N1       N      0.091390000000     0.545135000000     0.265840000000     0          
C2       C      0.065745000000     0.906250000000     0.199570000000     0          
H2       H      0.061150000000     0.888300000000     0.179450000000     0          
H3A      H      0.020650000000     0.962850000000     0.289900000000     0          
H3B      H      0.047100000000     0.931800000000     0.311400000000     0          
H3C      H      0.063800000000     0.973750000000     0.301950000000     0          
N1       N      0.045135000000     0.908610000000     0.234160000000     0          
C2       C      0.406250000000     0.934255000000     0.300430000000     0          
H2       H      0.388300000000     0.938850000000     0.320550000000     0          
N1       N      0.408610000000     0.954865000000     0.265840000000     0          
C2       C      0.434255000000     0.593750000000     0.199570000000     0          
H2       H      0.438850000000     0.611700000000     0.179450000000     0          
H3A      H      0.479350000000     0.537150000000     0.289900000000     0          
H3B      H      0.452900000000     0.568200000000     0.311400000000     0          
H3C      H      0.436200000000     0.526250000000     0.301950000000     0          
N1       N      0.454865000000     0.591390000000     0.234160000000     0          
C2       C      0.199570000000     0.593750000000     0.434255000000     0          
H2       H      0.179450000000     0.611700000000     0.438850000000     0          
H3A      H      0.289900000000     0.537150000000     0.479350000000     0          
H3B      H      0.311400000000     0.568200000000     0.452900000000     0          
H3C      H      0.301950000000     0.526250000000     0.436200000000     0          
N1       N      0.234160000000     0.591390000000     0.454865000000     0          
C2       C      0.199570000000     0.906250000000     0.065745000000     0          
H2       H      0.179450000000     0.888300000000     0.061150000000     0          
H3A      H      0.289900000000     0.962850000000     0.020650000000     0          
H3B      H      0.311400000000     0.931800000000     0.047100000000     0          
H3C      H      0.301950000000     0.973750000000     0.063800000000     0          
N1       N      0.234160000000     0.908610000000     0.045135000000     0          
C2       C      0.406250000000     0.800430000000     0.434255000000     0          
H2       H      0.388300000000     0.820550000000     0.438850000000     0          
N1       N      0.408610000000     0.765840000000     0.454865000000     0          
C2       C      0.300430000000     0.593750000000     0.065745000000     0          
H2       H      0.320550000000     0.611700000000     0.061150000000     0          
H3A      H      0.210100000000     0.537150000000     0.020650000000     0          
H3B      H      0.188600000000     0.568200000000     0.047100000000     0          
H3C      H      0.198050000000     0.526250000000     0.063800000000     0          
N1       N      0.265840000000     0.591390000000     0.045135000000     0          
C2       C      0.093750000000     0.699570000000     0.434255000000     0          
H2       H      0.111700000000     0.679450000000     0.438850000000     0          
H3A      H      0.037150000000     0.789900000000     0.479350000000     0          
H3B      H      0.068200000000     0.811400000000     0.452900000000     0          
H3C      H      0.026250000000     0.801950000000     0.436200000000     0          
N1       N      0.091390000000     0.734160000000     0.454865000000     0          
C2       C      0.300430000000     0.906250000000     0.434255000000     0          
H2       H      0.320550000000     0.888300000000     0.438850000000     0          
N1       N      0.265840000000     0.908610000000     0.454865000000     0          
C2       C      0.406250000000     0.699570000000     0.065745000000     0          
H2       H      0.388300000000     0.679450000000     0.061150000000     0          
N1       N      0.408610000000     0.734160000000     0.045135000000     0          
C2       C      0.093750000000     0.800430000000     0.065745000000     0          
H2       H      0.111700000000     0.820550000000     0.061150000000     0          
N1       N      0.091390000000     0.765840000000     0.045135000000     0          
C1       C      0.188525000000     0.503950000000     0.811475000000     0          
C2       C      0.184255000000     0.949570000000     0.843750000000     0          
H2       H      0.188850000000     0.929450000000     0.861700000000     0          
C3       C      0.203050000000     0.542750000000     0.796950000000     0          
N1       N      0.204865000000     0.984160000000     0.841390000000     0          
Zn1      Zn     0.250000000000     0.500000000000     0.875000000000     0          
C1       C      0.003950000000     0.811475000000     0.688525000000     0          
C2       C      0.449570000000     0.815745000000     0.656250000000     0          
H2       H      0.429450000000     0.811150000000     0.638300000000     0          
C3       C      0.042750000000     0.796950000000     0.703050000000     0          
N1       N      0.484160000000     0.795135000000     0.658610000000     0          
Zn1      Zn     0.000000000000     0.750000000000     0.625000000000     0          
C1       C      0.311475000000     0.996050000000     0.811475000000     0          
C2       C      0.315745000000     0.550430000000     0.843750000000     0          
H2       H      0.311150000000     0.570550000000     0.861700000000     0          
C3       C      0.296950000000     0.957250000000     0.796950000000     0          
H3A      H      0.270650000000     0.960100000000     0.787150000000     0          
H3B      H      0.297100000000     0.938600000000     0.818200000000     0          
H3C      H      0.313800000000     0.948050000000     0.776250000000     0          
N1       N      0.295135000000     0.515840000000     0.841390000000     0          
C1       C      0.496050000000     0.688525000000     0.688525000000     0          
C2       C      0.050430000000     0.684255000000     0.656250000000     0          
H2       H      0.070550000000     0.688850000000     0.638300000000     0          
C3       C      0.457250000000     0.703050000000     0.703050000000     0          
H3A      H      0.460100000000     0.729350000000     0.712850000000     0          
H3B      H      0.438600000000     0.702900000000     0.681800000000     0          
H3C      H      0.448050000000     0.686200000000     0.723750000000     0          
N1       N      0.015840000000     0.704865000000     0.658610000000     0          
C1       C      0.188525000000     0.996050000000     0.688525000000     0          
C2       C      0.184255000000     0.550430000000     0.656250000000     0          
H2       H      0.188850000000     0.570550000000     0.638300000000     0          
C3       C      0.203050000000     0.957250000000     0.703050000000     0          
N1       N      0.204865000000     0.515840000000     0.658610000000     0          
Zn1      Zn     0.250000000000     0.500000000000     0.625000000000     0          
C1       C      0.496050000000     0.811475000000     0.811475000000     0          
C2       C      0.050430000000     0.815745000000     0.843750000000     0          
H2       H      0.070550000000     0.811150000000     0.861700000000     0          
C3       C      0.457250000000     0.796950000000     0.796950000000     0          
N1       N      0.015840000000     0.795135000000     0.841390000000     0          
Zn1      Zn     0.000000000000     0.750000000000     0.875000000000     0          
C1       C      0.311475000000     0.503950000000     0.688525000000     0          
C2       C      0.315745000000     0.949570000000     0.656250000000     0          
H2       H      0.311150000000     0.929450000000     0.638300000000     0          
C3       C      0.296950000000     0.542750000000     0.703050000000     0          
H3A      H      0.270650000000     0.539900000000     0.712850000000     0          
H3B      H      0.297100000000     0.561400000000     0.681800000000     0          
H3C      H      0.313800000000     0.551950000000     0.723750000000     0          
N1       N      0.295135000000     0.984160000000     0.658610000000     0          
C1       C      0.003950000000     0.688525000000     0.811475000000     0          
C2       C      0.449570000000     0.684255000000     0.843750000000     0          
H2       H      0.429450000000     0.688850000000     0.861700000000     0          
C3       C      0.042750000000     0.703050000000     0.796950000000     0          
H3A      H      0.039900000000     0.729350000000     0.787150000000     0          
H3B      H      0.061400000000     0.702900000000     0.818200000000     0          
H3C      H      0.051950000000     0.686200000000     0.776250000000     0          
N1       N      0.484160000000     0.704865000000     0.841390000000     0          
C1       C      0.311475000000     0.688525000000     0.503950000000     0          
C2       C      0.343750000000     0.684255000000     0.949570000000     0          
H2       H      0.361700000000     0.688850000000     0.929450000000     0          
C3       C      0.296950000000     0.703050000000     0.542750000000     0          
N1       N      0.341390000000     0.704865000000     0.984160000000     0          
Zn1      Zn     0.375000000000     0.750000000000     0.500000000000     0          
C1       C      0.188525000000     0.688525000000     0.996050000000     0          
C2       C      0.184255000000     0.656250000000     0.550430000000     0          
H2       H      0.188850000000     0.638300000000     0.570550000000     0          
C3       C      0.203050000000     0.703050000000     0.957250000000     0          
H3A      H      0.229350000000     0.712850000000     0.960100000000     0          
H3B      H      0.202900000000     0.681800000000     0.938600000000     0          
H3C      H      0.186200000000     0.723750000000     0.948050000000     0          
N1       N      0.204865000000     0.658610000000     0.515840000000     0          
Zn1      Zn     0.250000000000     0.625000000000     0.500000000000     0          
C1       C      0.188525000000     0.811475000000     0.503950000000     0          
C2       C      0.156250000000     0.815745000000     0.949570000000     0          
H2       H      0.138300000000     0.811150000000     0.929450000000     0          
C3       C      0.203050000000     0.796950000000     0.542750000000     0          
N1       N      0.158610000000     0.795135000000     0.984160000000     0          
Zn1      Zn     0.125000000000     0.750000000000     0.500000000000     0          
C1       C      0.311475000000     0.811475000000     0.996050000000     0          
C2       C      0.315745000000     0.843750000000     0.550430000000     0          
H2       H      0.311150000000     0.861700000000     0.570550000000     0          
C3       C      0.296950000000     0.796950000000     0.957250000000     0          
H3A      H      0.270650000000     0.787150000000     0.960100000000     0          
H3B      H      0.297100000000     0.818200000000     0.938600000000     0          
H3C      H      0.313800000000     0.776250000000     0.948050000000     0          
N1       N      0.295135000000     0.841390000000     0.515840000000     0          
Zn1      Zn     0.250000000000     0.875000000000     0.500000000000     0          
C2       C      0.343750000000     0.815745000000     0.550430000000     0          
H2       H      0.361700000000     0.811150000000     0.570550000000     0          
N1       N      0.341390000000     0.795135000000     0.515840000000     0          
C2       C      0.315745000000     0.656250000000     0.949570000000     0          
H2       H      0.311150000000     0.638300000000     0.929450000000     0          
H3A      H      0.270650000000     0.712850000000     0.539900000000     0          
H3B      H      0.297100000000     0.681800000000     0.561400000000     0          
H3C      H      0.313800000000     0.723750000000     0.551950000000     0          
N1       N      0.295135000000     0.658610000000     0.984160000000     0          
C2       C      0.156250000000     0.684255000000     0.550430000000     0          
H2       H      0.138300000000     0.688850000000     0.570550000000     0          
N1       N      0.158610000000     0.704865000000     0.515840000000     0          
C2       C      0.184255000000     0.843750000000     0.949570000000     0          
H2       H      0.188850000000     0.861700000000     0.929450000000     0          
H3A      H      0.229350000000     0.787150000000     0.539900000000     0          
H3B      H      0.202900000000     0.818200000000     0.561400000000     0          
H3C      H      0.186200000000     0.776250000000     0.551950000000     0          
N1       N      0.204865000000     0.841390000000     0.984160000000     0          
C2       C      0.449570000000     0.843750000000     0.684255000000     0          
H2       H      0.429450000000     0.861700000000     0.688850000000     0          
H3A      H      0.039900000000     0.787150000000     0.729350000000     0          
H3B      H      0.061400000000     0.818200000000     0.702900000000     0          
H3C      H      0.051950000000     0.776250000000     0.686200000000     0          
N1       N      0.484160000000     0.841390000000     0.704865000000     0          
Zn1      Zn     0.000000000000     0.875000000000     0.750000000000     0          
C2       C      0.449570000000     0.656250000000     0.815745000000     0          
H2       H      0.429450000000     0.638300000000     0.811150000000     0          
N1       N      0.484160000000     0.658610000000     0.795135000000     0          
Zn1      Zn     0.000000000000     0.625000000000     0.750000000000     0          
C2       C      0.156250000000     0.550430000000     0.684255000000     0          
H2       H      0.138300000000     0.570550000000     0.688850000000     0          
H3A      H      0.212850000000     0.960100000000     0.729350000000     0          
H3B      H      0.181800000000     0.938600000000     0.702900000000     0          
H3C      H      0.223750000000     0.948050000000     0.686200000000     0          
N1       N      0.158610000000     0.515840000000     0.704865000000     0          
Zn1      Zn     0.125000000000     0.500000000000     0.750000000000     0          
C2       C      0.050430000000     0.843750000000     0.815745000000     0          
H2       H      0.070550000000     0.861700000000     0.811150000000     0          
H3A      H      0.460100000000     0.787150000000     0.770650000000     0          
H3B      H      0.438600000000     0.818200000000     0.797100000000     0          
H3C      H      0.448050000000     0.776250000000     0.813800000000     0          
N1       N      0.015840000000     0.841390000000     0.795135000000     0          
C2       C      0.343750000000     0.949570000000     0.684255000000     0          
H2       H      0.361700000000     0.929450000000     0.688850000000     0          
N1       N      0.341390000000     0.984160000000     0.704865000000     0          
Zn1      Zn     0.375000000000     0.500000000000     0.750000000000     0          
C2       C      0.050430000000     0.656250000000     0.684255000000     0          
H2       H      0.070550000000     0.638300000000     0.688850000000     0          
N1       N      0.015840000000     0.658610000000     0.704865000000     0          
C2       C      0.156250000000     0.949570000000     0.815745000000     0          
H2       H      0.138300000000     0.929450000000     0.811150000000     0          
H3A      H      0.212850000000     0.539900000000     0.770650000000     0          
H3B      H      0.181800000000     0.561400000000     0.797100000000     0          
H3C      H      0.223750000000     0.551950000000     0.813800000000     0          
N1       N      0.158610000000     0.984160000000     0.795135000000     0          
C2       C      0.343750000000     0.550430000000     0.815745000000     0          
H2       H      0.361700000000     0.570550000000     0.811150000000     0          
N1       N      0.341390000000     0.515840000000     0.795135000000     0          
C1       C      0.438525000000     0.753950000000     0.561475000000     0          
C2       C      0.434255000000     0.699570000000     0.593750000000     0          
H2       H      0.438850000000     0.679450000000     0.611700000000     0          
C3       C      0.453050000000     0.792750000000     0.546950000000     0          
H3A      H      0.479350000000     0.789900000000     0.537150000000     0          
H3B      H      0.452900000000     0.811400000000     0.568200000000     0          
H3C      H      0.436200000000     0.801950000000     0.526250000000     0          
N1       N      0.454865000000     0.734160000000     0.591390000000     0          
C1       C      0.253950000000     0.561475000000     0.938525000000     0          
C2       C      0.199570000000     0.565745000000     0.906250000000     0          
H2       H      0.179450000000     0.561150000000     0.888300000000     0          
C3       C      0.292750000000     0.546950000000     0.953050000000     0          
N1       N      0.234160000000     0.545135000000     0.908610000000     0          
C1       C      0.061475000000     0.746050000000     0.561475000000     0          
C2       C      0.065745000000     0.800430000000     0.593750000000     0          
H2       H      0.061150000000     0.820550000000     0.611700000000     0          
C3       C      0.046950000000     0.707250000000     0.546950000000     0          
H3A      H      0.020650000000     0.710100000000     0.537150000000     0          
H3B      H      0.047100000000     0.688600000000     0.568200000000     0          
H3C      H      0.063800000000     0.698050000000     0.526250000000     0          
N1       N      0.045135000000     0.765840000000     0.591390000000     0          
C1       C      0.246050000000     0.938525000000     0.938525000000     0          
C2       C      0.300430000000     0.934255000000     0.906250000000     0          
H2       H      0.320550000000     0.938850000000     0.888300000000     0          
C3       C      0.207250000000     0.953050000000     0.953050000000     0          
H3A      H      0.210100000000     0.979350000000     0.962850000000     0          
H3B      H      0.188600000000     0.952900000000     0.931800000000     0          
H3C      H      0.198050000000     0.936200000000     0.973750000000     0          
N1       N      0.265840000000     0.954865000000     0.908610000000     0          
C1       C      0.438525000000     0.746050000000     0.938525000000     0          
C2       C      0.434255000000     0.800430000000     0.906250000000     0          
H2       H      0.438850000000     0.820550000000     0.888300000000     0          
C3       C      0.453050000000     0.707250000000     0.953050000000     0          
H3A      H      0.479350000000     0.710100000000     0.962850000000     0          
H3B      H      0.452900000000     0.688600000000     0.931800000000     0          
H3C      H      0.436200000000     0.698050000000     0.973750000000     0          
N1       N      0.454865000000     0.765840000000     0.908610000000     0          
C1       C      0.246050000000     0.561475000000     0.561475000000     0          
C2       C      0.300430000000     0.565745000000     0.593750000000     0          
H2       H      0.320550000000     0.561150000000     0.611700000000     0          
C3       C      0.207250000000     0.546950000000     0.546950000000     0          
N1       N      0.265840000000     0.545135000000     0.591390000000     0          
C1       C      0.061475000000     0.753950000000     0.938525000000     0          
C2       C      0.065745000000     0.699570000000     0.906250000000     0          
H2       H      0.061150000000     0.679450000000     0.888300000000     0          
C3       C      0.046950000000     0.792750000000     0.953050000000     0          
N1       N      0.045135000000     0.734160000000     0.908610000000     0          
C1       C      0.253950000000     0.938525000000     0.561475000000     0          
C2       C      0.199570000000     0.934255000000     0.593750000000     0          
H2       H      0.179450000000     0.938850000000     0.611700000000     0          
C3       C      0.292750000000     0.953050000000     0.546950000000     0          
N1       N      0.234160000000     0.954865000000     0.591390000000     0          
C1       C      0.061475000000     0.938525000000     0.753950000000     0          
C2       C      0.093750000000     0.934255000000     0.699570000000     0          
H2       H      0.111700000000     0.938850000000     0.679450000000     0          
C3       C      0.046950000000     0.953050000000     0.792750000000     0          
N1       N      0.091390000000     0.954865000000     0.734160000000     0          
C1       C      0.438525000000     0.938525000000     0.746050000000     0          
C2       C      0.434255000000     0.906250000000     0.800430000000     0          
H2       H      0.438850000000     0.888300000000     0.820550000000     0          
C3       C      0.453050000000     0.953050000000     0.707250000000     0          
H3A      H      0.479350000000     0.962850000000     0.710100000000     0          
H3B      H      0.452900000000     0.931800000000     0.688600000000     0          
H3C      H      0.436200000000     0.973750000000     0.698050000000     0          
N1       N      0.454865000000     0.908610000000     0.765840000000     0          
C1       C      0.438525000000     0.561475000000     0.753950000000     0          
C2       C      0.406250000000     0.565745000000     0.699570000000     0          
H2       H      0.388300000000     0.561150000000     0.679450000000     0          
C3       C      0.453050000000     0.546950000000     0.792750000000     0          
N1       N      0.408610000000     0.545135000000     0.734160000000     0          
C1       C      0.061475000000     0.561475000000     0.746050000000     0          
C2       C      0.065745000000     0.593750000000     0.800430000000     0          
H2       H      0.061150000000     0.611700000000     0.820550000000     0          
C3       C      0.046950000000     0.546950000000     0.707250000000     0          
H3A      H      0.020650000000     0.537150000000     0.710100000000     0          
H3B      H      0.047100000000     0.568200000000     0.688600000000     0          
H3C      H      0.063800000000     0.526250000000     0.698050000000     0          
N1       N      0.045135000000     0.591390000000     0.765840000000     0          
C2       C      0.093750000000     0.565745000000     0.800430000000     0          
H2       H      0.111700000000     0.561150000000     0.820550000000     0          
N1       N      0.091390000000     0.545135000000     0.765840000000     0          
C2       C      0.065745000000     0.906250000000     0.699570000000     0          
H2       H      0.061150000000     0.888300000000     0.679450000000     0          
H3A      H      0.020650000000     0.962850000000     0.789900000000     0          
H3B      H      0.047100000000     0.931800000000     0.811400000000     0          
H3C      H      0.063800000000     0.973750000000     0.801950000000     0          
N1       N      0.045135000000     0.908610000000     0.734160000000     0          
C2       C      0.406250000000     0.934255000000     0.800430000000     0          
H2       H      0.388300000000     0.938850000000     0.820550000000     0          
N1       N      0.408610000000     0.954865000000     0.765840000000     0          
C2       C      0.434255000000     0.593750000000     0.699570000000     0          
H2       H      0.438850000000     0.611700000000     0.679450000000     0          
H3A      H      0.479350000000     0.537150000000     0.789900000000     0          
H3B      H      0.452900000000     0.568200000000     0.811400000000     0          
H3C      H      0.436200000000     0.526250000000     0.801950000000     0          
N1       N      0.454865000000     0.591390000000     0.734160000000     0          
C2       C      0.199570000000     0.593750000000     0.934255000000     0          
H2       H      0.179450000000     0.611700000000     0.938850000000     0          
H3A      H      0.289900000000     0.537150000000     0.979350000000     0          
H3B      H      0.311400000000     0.568200000000     0.952900000000     0          
H3C      H      0.301950000000     0.526250000000     0.936200000000     0          
N1       N      0.234160000000     0.591390000000     0.954865000000     0          
C2       C      0.199570000000     0.906250000000     0.565745000000     0          
H2       H      0.179450000000     0.888300000000     0.561150000000     0          
H3A      H      0.289900000000     0.962850000000     0.520650000000     0          
H3B      H      0.311400000000     0.931800000000     0.547100000000     0          
H3C      H      0.301950000000     0.973750000000     0.563800000000     0          
N1       N      0.234160000000     0.908610000000     0.545135000000     0          
C2       C      0.406250000000     0.800430000000     0.934255000000     0          
H2       H      0.388300000000     0.820550000000     0.938850000000     0          
N1       N      0.408610000000     0.765840000000     0.954865000000     0          
C2       C      0.300430000000     0.593750000000     0.565745000000     0          
H2       H      0.320550000000     0.611700000000     0.561150000000     0          
H3A      H      0.210100000000     0.537150000000     0.520650000000     0          
H3B      H      0.188600000000     0.568200000000     0.547100000000     0          
H3C      H      0.198050000000     0.526250000000     0.563800000000     0          
N1       N      0.265840000000     0.591390000000     0.545135000000     0          
C2       C      0.093750000000     0.699570000000     0.934255000000     0          
H2       H      0.111700000000     0.679450000000     0.938850000000     0          
H3A      H      0.037150000000     0.789900000000     0.979350000000     0          
H3B      H      0.068200000000     0.811400000000     0.952900000000     0          
H3C      H      0.026250000000     0.801950000000     0.936200000000     0          
N1       N      0.091390000000     0.734160000000     0.954865000000     0          
C2       C      0.300430000000     0.906250000000     0.934255000000     0          
H2       H      0.320550000000     0.888300000000     0.938850000000     0          
N1       N      0.265840000000     0.908610000000     0.954865000000     0          
C2       C      0.406250000000     0.699570000000     0.565745000000     0          
H2       H      0.388300000000     0.679450000000     0.561150000000     0          
N1       N      0.408610000000     0.734160000000     0.545135000000     0          
C2       C      0.093750000000     0.800430000000     0.565745000000     0          
H2       H      0.111700000000     0.820550000000     0.561150000000     0          
N1       N      0.091390000000     0.765840000000     0.545135000000     0          
C1       C      0.688525000000     0.003950000000     0.311475000000     0          
C2       C      0.684255000000     0.449570000000     0.343750000000     0          
H2       H      0.688850000000     0.429450000000     0.361700000000     0          
C3       C      0.703050000000     0.042750000000     0.296950000000     0          
N1       N      0.704865000000     0.484160000000     0.341390000000     0          
Zn1      Zn     0.750000000000     0.000000000000     0.375000000000     0          
C1       C      0.503950000000     0.311475000000     0.188525000000     0          
C2       C      0.949570000000     0.315745000000     0.156250000000     0          
H2       H      0.929450000000     0.311150000000     0.138300000000     0          
C3       C      0.542750000000     0.296950000000     0.203050000000     0          
N1       N      0.984160000000     0.295135000000     0.158610000000     0          
Zn1      Zn     0.500000000000     0.250000000000     0.125000000000     0          
C1       C      0.811475000000     0.496050000000     0.311475000000     0          
C2       C      0.815745000000     0.050430000000     0.343750000000     0          
H2       H      0.811150000000     0.070550000000     0.361700000000     0          
C3       C      0.796950000000     0.457250000000     0.296950000000     0          
H3A      H      0.770650000000     0.460100000000     0.287150000000     0          
H3B      H      0.797100000000     0.438600000000     0.318200000000     0          
H3C      H      0.813800000000     0.448050000000     0.276250000000     0          
N1       N      0.795135000000     0.015840000000     0.341390000000     0          
C1       C      0.996050000000     0.188525000000     0.188525000000     0          
C2       C      0.550430000000     0.184255000000     0.156250000000     0          
H2       H      0.570550000000     0.188850000000     0.138300000000     0          
C3       C      0.957250000000     0.203050000000     0.203050000000     0          
H3A      H      0.960100000000     0.229350000000     0.212850000000     0          
H3B      H      0.938600000000     0.202900000000     0.181800000000     0          
H3C      H      0.948050000000     0.186200000000     0.223750000000     0          
N1       N      0.515840000000     0.204865000000     0.158610000000     0          
C1       C      0.688525000000     0.496050000000     0.188525000000     0          
C2       C      0.684255000000     0.050430000000     0.156250000000     0          
H2       H      0.688850000000     0.070550000000     0.138300000000     0          
C3       C      0.703050000000     0.457250000000     0.203050000000     0          
N1       N      0.704865000000     0.015840000000     0.158610000000     0          
Zn1      Zn     0.750000000000     0.000000000000     0.125000000000     0          
C1       C      0.996050000000     0.311475000000     0.311475000000     0          
C2       C      0.550430000000     0.315745000000     0.343750000000     0          
H2       H      0.570550000000     0.311150000000     0.361700000000     0          
C3       C      0.957250000000     0.296950000000     0.296950000000     0          
N1       N      0.515840000000     0.295135000000     0.341390000000     0          
Zn1      Zn     0.500000000000     0.250000000000     0.375000000000     0          
C1       C      0.811475000000     0.003950000000     0.188525000000     0          
C2       C      0.815745000000     0.449570000000     0.156250000000     0          
H2       H      0.811150000000     0.429450000000     0.138300000000     0          
C3       C      0.796950000000     0.042750000000     0.203050000000     0          
H3A      H      0.770650000000     0.039900000000     0.212850000000     0          
H3B      H      0.797100000000     0.061400000000     0.181800000000     0          
H3C      H      0.813800000000     0.051950000000     0.223750000000     0          
N1       N      0.795135000000     0.484160000000     0.158610000000     0          
C1       C      0.503950000000     0.188525000000     0.311475000000     0          
C2       C      0.949570000000     0.184255000000     0.343750000000     0          
H2       H      0.929450000000     0.188850000000     0.361700000000     0          
C3       C      0.542750000000     0.203050000000     0.296950000000     0          
H3A      H      0.539900000000     0.229350000000     0.287150000000     0          
H3B      H      0.561400000000     0.202900000000     0.318200000000     0          
H3C      H      0.551950000000     0.186200000000     0.276250000000     0          
N1       N      0.984160000000     0.204865000000     0.341390000000     0          
C1       C      0.811475000000     0.188525000000     0.003950000000     0          
C2       C      0.843750000000     0.184255000000     0.449570000000     0          
H2       H      0.861700000000     0.188850000000     0.429450000000     0          
C3       C      0.796950000000     0.203050000000     0.042750000000     0          
N1       N      0.841390000000     0.204865000000     0.484160000000     0          
Zn1      Zn     0.875000000000     0.250000000000     0.000000000000     0          
C1       C      0.688525000000     0.188525000000     0.496050000000     0          
C2       C      0.684255000000     0.156250000000     0.050430000000     0          
H2       H      0.688850000000     0.138300000000     0.070550000000     0          
C3       C      0.703050000000     0.203050000000     0.457250000000     0          
H3A      H      0.729350000000     0.212850000000     0.460100000000     0          
H3B      H      0.702900000000     0.181800000000     0.438600000000     0          
H3C      H      0.686200000000     0.223750000000     0.448050000000     0          
N1       N      0.704865000000     0.158610000000     0.015840000000     0          
Zn1      Zn     0.750000000000     0.125000000000     0.000000000000     0          
C1       C      0.688525000000     0.311475000000     0.003950000000     0          
C2       C      0.656250000000     0.315745000000     0.449570000000     0          
H2       H      0.638300000000     0.311150000000     0.429450000000     0          
C3       C      0.703050000000     0.296950000000     0.042750000000     0          
N1       N      0.658610000000     0.295135000000     0.484160000000     0          
Zn1      Zn     0.625000000000     0.250000000000     0.000000000000     0          
C1       C      0.811475000000     0.311475000000     0.496050000000     0          
C2       C      0.815745000000     0.343750000000     0.050430000000     0          
H2       H      0.811150000000     0.361700000000     0.070550000000     0          
C3       C      0.796950000000     0.296950000000     0.457250000000     0          
H3A      H      0.770650000000     0.287150000000     0.460100000000     0          
H3B      H      0.797100000000     0.318200000000     0.438600000000     0          
H3C      H      0.813800000000     0.276250000000     0.448050000000     0          
N1       N      0.795135000000     0.341390000000     0.015840000000     0          
Zn1      Zn     0.750000000000     0.375000000000     0.000000000000     0          
C2       C      0.843750000000     0.315745000000     0.050430000000     0          
H2       H      0.861700000000     0.311150000000     0.070550000000     0          
N1       N      0.841390000000     0.295135000000     0.015840000000     0          
C2       C      0.815745000000     0.156250000000     0.449570000000     0          
H2       H      0.811150000000     0.138300000000     0.429450000000     0          
H3A      H      0.770650000000     0.212850000000     0.039900000000     0          
H3B      H      0.797100000000     0.181800000000     0.061400000000     0          
H3C      H      0.813800000000     0.223750000000     0.051950000000     0          
N1       N      0.795135000000     0.158610000000     0.484160000000     0          
C2       C      0.656250000000     0.184255000000     0.050430000000     0          
H2       H      0.638300000000     0.188850000000     0.070550000000     0          
N1       N      0.658610000000     0.204865000000     0.015840000000     0          
C2       C      0.684255000000     0.343750000000     0.449570000000     0          
H2       H      0.688850000000     0.361700000000     0.429450000000     0          
H3A      H      0.729350000000     0.287150000000     0.039900000000     0          
H3B      H      0.702900000000     0.318200000000     0.061400000000     0          
H3C      H      0.686200000000     0.276250000000     0.051950000000     0          
N1       N      0.704865000000     0.341390000000     0.484160000000     0          
C2       C      0.949570000000     0.343750000000     0.184255000000     0          
H2       H      0.929450000000     0.361700000000     0.188850000000     0          
H3A      H      0.539900000000     0.287150000000     0.229350000000     0          
H3B      H      0.561400000000     0.318200000000     0.202900000000     0          
H3C      H      0.551950000000     0.276250000000     0.186200000000     0          
N1       N      0.984160000000     0.341390000000     0.204865000000     0          
Zn1      Zn     0.500000000000     0.375000000000     0.250000000000     0          
C2       C      0.949570000000     0.156250000000     0.315745000000     0          
H2       H      0.929450000000     0.138300000000     0.311150000000     0          
N1       N      0.984160000000     0.158610000000     0.295135000000     0          
Zn1      Zn     0.500000000000     0.125000000000     0.250000000000     0          
C2       C      0.656250000000     0.050430000000     0.184255000000     0          
H2       H      0.638300000000     0.070550000000     0.188850000000     0          
H3A      H      0.712850000000     0.460100000000     0.229350000000     0          
H3B      H      0.681800000000     0.438600000000     0.202900000000     0          
H3C      H      0.723750000000     0.448050000000     0.186200000000     0          
N1       N      0.658610000000     0.015840000000     0.204865000000     0          
Zn1      Zn     0.625000000000     0.000000000000     0.250000000000     0          
C2       C      0.550430000000     0.343750000000     0.315745000000     0          
H2       H      0.570550000000     0.361700000000     0.311150000000     0          
H3A      H      0.960100000000     0.287150000000     0.270650000000     0          
H3B      H      0.938600000000     0.318200000000     0.297100000000     0          
H3C      H      0.948050000000     0.276250000000     0.313800000000     0          
N1       N      0.515840000000     0.341390000000     0.295135000000     0          
C2       C      0.843750000000     0.449570000000     0.184255000000     0          
H2       H      0.861700000000     0.429450000000     0.188850000000     0          
N1       N      0.841390000000     0.484160000000     0.204865000000     0          
Zn1      Zn     0.875000000000     0.000000000000     0.250000000000     0          
C2       C      0.550430000000     0.156250000000     0.184255000000     0          
H2       H      0.570550000000     0.138300000000     0.188850000000     0          
N1       N      0.515840000000     0.158610000000     0.204865000000     0          
C2       C      0.656250000000     0.449570000000     0.315745000000     0          
H2       H      0.638300000000     0.429450000000     0.311150000000     0          
H3A      H      0.712850000000     0.039900000000     0.270650000000     0          
H3B      H      0.681800000000     0.061400000000     0.297100000000     0          
H3C      H      0.723750000000     0.051950000000     0.313800000000     0          
N1       N      0.658610000000     0.484160000000     0.295135000000     0          
C2       C      0.843750000000     0.050430000000     0.315745000000     0          
H2       H      0.861700000000     0.070550000000     0.311150000000     0          
N1       N      0.841390000000     0.015840000000     0.295135000000     0          
C1       C      0.938525000000     0.253950000000     0.061475000000     0          
C2       C      0.934255000000     0.199570000000     0.093750000000     0          
H2       H      0.938850000000     0.179450000000     0.111700000000     0          
C3       C      0.953050000000     0.292750000000     0.046950000000     0          
H3A      H      0.979350000000     0.289900000000     0.037150000000     0          
H3B      H      0.952900000000     0.311400000000     0.068200000000     0          
H3C      H      0.936200000000     0.301950000000     0.026250000000     0          
N1       N      0.954865000000     0.234160000000     0.091390000000     0          
C1       C      0.753950000000     0.061475000000     0.438525000000     0          
C2       C      0.699570000000     0.065745000000     0.406250000000     0          
H2       H      0.679450000000     0.061150000000     0.388300000000     0          
C3       C      0.792750000000     0.046950000000     0.453050000000     0          
N1       N      0.734160000000     0.045135000000     0.408610000000     0          
C1       C      0.561475000000     0.246050000000     0.061475000000     0          
C2       C      0.565745000000     0.300430000000     0.093750000000     0          
H2       H      0.561150000000     0.320550000000     0.111700000000     0          
C3       C      0.546950000000     0.207250000000     0.046950000000     0          
H3A      H      0.520650000000     0.210100000000     0.037150000000     0          
H3B      H      0.547100000000     0.188600000000     0.068200000000     0          
H3C      H      0.563800000000     0.198050000000     0.026250000000     0          
N1       N      0.545135000000     0.265840000000     0.091390000000     0          
C1       C      0.746050000000     0.438525000000     0.438525000000     0          
C2       C      0.800430000000     0.434255000000     0.406250000000     0          
H2       H      0.820550000000     0.438850000000     0.388300000000     0          
C3       C      0.707250000000     0.453050000000     0.453050000000     0          
H3A      H      0.710100000000     0.479350000000     0.462850000000     0          
H3B      H      0.688600000000     0.452900000000     0.431800000000     0          
H3C      H      0.698050000000     0.436200000000     0.473750000000     0          
N1       N      0.765840000000     0.454865000000     0.408610000000     0          
C1       C      0.938525000000     0.246050000000     0.438525000000     0          
C2       C      0.934255000000     0.300430000000     0.406250000000     0          
H2       H      0.938850000000     0.320550000000     0.388300000000     0          
C3       C      0.953050000000     0.207250000000     0.453050000000     0          
H3A      H      0.979350000000     0.210100000000     0.462850000000     0          
H3B      H      0.952900000000     0.188600000000     0.431800000000     0          
H3C      H      0.936200000000     0.198050000000     0.473750000000     0          
N1       N      0.954865000000     0.265840000000     0.408610000000     0          
C1       C      0.746050000000     0.061475000000     0.061475000000     0          
C2       C      0.800430000000     0.065745000000     0.093750000000     0          
H2       H      0.820550000000     0.061150000000     0.111700000000     0          
C3       C      0.707250000000     0.046950000000     0.046950000000     0          
N1       N      0.765840000000     0.045135000000     0.091390000000     0          
C1       C      0.561475000000     0.253950000000     0.438525000000     0          
C2       C      0.565745000000     0.199570000000     0.406250000000     0          
H2       H      0.561150000000     0.179450000000     0.388300000000     0          
C3       C      0.546950000000     0.292750000000     0.453050000000     0          
N1       N      0.545135000000     0.234160000000     0.408610000000     0          
C1       C      0.753950000000     0.438525000000     0.061475000000     0          
C2       C      0.699570000000     0.434255000000     0.093750000000     0          
H2       H      0.679450000000     0.438850000000     0.111700000000     0          
C3       C      0.792750000000     0.453050000000     0.046950000000     0          
N1       N      0.734160000000     0.454865000000     0.091390000000     0          
C1       C      0.561475000000     0.438525000000     0.253950000000     0          
C2       C      0.593750000000     0.434255000000     0.199570000000     0          
H2       H      0.611700000000     0.438850000000     0.179450000000     0          
C3       C      0.546950000000     0.453050000000     0.292750000000     0          
N1       N      0.591390000000     0.454865000000     0.234160000000     0          
C1       C      0.938525000000     0.438525000000     0.246050000000     0          
C2       C      0.934255000000     0.406250000000     0.300430000000     0          
H2       H      0.938850000000     0.388300000000     0.320550000000     0          
C3       C      0.953050000000     0.453050000000     0.207250000000     0          
H3A      H      0.979350000000     0.462850000000     0.210100000000     0          
H3B      H      0.952900000000     0.431800000000     0.188600000000     0          
H3C      H      0.936200000000     0.473750000000     0.198050000000     0          
N1       N      0.954865000000     0.408610000000     0.265840000000     0          
C1       C      0.938525000000     0.061475000000     0.253950000000     0          
C2       C      0.906250000000     0.065745000000     0.199570000000     0          
H2       H      0.888300000000     0.061150000000     0.179450000000     0          
C3       C      0.953050000000     0.046950000000     0.292750000000     0          
N1       N      0.908610000000     0.045135000000     0.234160000000     0          
C1       C      0.561475000000     0.061475000000     0.246050000000     0          
C2       C      0.565745000000     0.093750000000     0.300430000000     0          
H2       H      0.561150000000     0.111700000000     0.320550000000     0          
C3       C      0.546950000000     0.046950000000     0.207250000000     0          
H3A      H      0.520650000000     0.037150000000     0.210100000000     0          
H3B      H      0.547100000000     0.068200000000     0.188600000000     0          
H3C      H      0.563800000000     0.026250000000     0.198050000000     0          
N1       N      0.545135000000     0.091390000000     0.265840000000     0          
C2       C      0.593750000000     0.065745000000     0.300430000000     0          
H2       H      0.611700000000     0.061150000000     0.320550000000     0          
N1       N      0.591390000000     0.045135000000     0.265840000000     0          
C2       C      0.565745000000     0.406250000000     0.199570000000     0          
H2       H      0.561150000000     0.388300000000     0.179450000000     0          
H3A      H      0.520650000000     0.462850000000     0.289900000000     0          
H3B      H      0.547100000000     0.431800000000     0.311400000000     0          
H3C      H      0.563800000000     0.473750000000     0.301950000000     0          
N1       N      0.545135000000     0.408610000000     0.234160000000     0          
C2       C      0.906250000000     0.434255000000     0.300430000000     0          
H2       H      0.888300000000     0.438850000000     0.320550000000     0          
N1       N      0.908610000000     0.454865000000     0.265840000000     0          
C2       C      0.934255000000     0.093750000000     0.199570000000     0          
H2       H      0.938850000000     0.111700000000     0.179450000000     0          
H3A      H      0.979350000000     0.037150000000     0.289900000000     0          
H3B      H      0.952900000000     0.068200000000     0.311400000000     0          
H3C      H      0.936200000000     0.026250000000     0.301950000000     0          
N1       N      0.954865000000     0.091390000000     0.234160000000     0          
C2       C      0.699570000000     0.093750000000     0.434255000000     0          
H2       H      0.679450000000     0.111700000000     0.438850000000     0          
H3A      H      0.789900000000     0.037150000000     0.479350000000     0          
H3B      H      0.811400000000     0.068200000000     0.452900000000     0          
H3C      H      0.801950000000     0.026250000000     0.436200000000     0          
N1       N      0.734160000000     0.091390000000     0.454865000000     0          
C2       C      0.699570000000     0.406250000000     0.065745000000     0          
H2       H      0.679450000000     0.388300000000     0.061150000000     0          
H3A      H      0.789900000000     0.462850000000     0.020650000000     0          
H3B      H      0.811400000000     0.431800000000     0.047100000000     0          
H3C      H      0.801950000000     0.473750000000     0.063800000000     0          
N1       N      0.734160000000     0.408610000000     0.045135000000     0          
C2       C      0.906250000000     0.300430000000     0.434255000000     0          
H2       H      0.888300000000     0.320550000000     0.438850000000     0          
N1       N      0.908610000000     0.265840000000     0.454865000000     0          
C2       C      0.800430000000     0.093750000000     0.065745000000     0          
H2       H      0.820550000000     0.111700000000     0.061150000000     0          
H3A      H      0.710100000000     0.037150000000     0.020650000000     0          
H3B      H      0.688600000000     0.068200000000     0.047100000000     0          
H3C      H      0.698050000000     0.026250000000     0.063800000000     0          
N1       N      0.765840000000     0.091390000000     0.045135000000     0          
C2       C      0.593750000000     0.199570000000     0.434255000000     0          
H2       H      0.611700000000     0.179450000000     0.438850000000     0          
H3A      H      0.537150000000     0.289900000000     0.479350000000     0          
H3B      H      0.568200000000     0.311400000000     0.452900000000     0          
H3C      H      0.526250000000     0.301950000000     0.436200000000     0          
N1       N      0.591390000000     0.234160000000     0.454865000000     0          
C2       C      0.800430000000     0.406250000000     0.434255000000     0          
H2       H      0.820550000000     0.388300000000     0.438850000000     0          
N1       N      0.765840000000     0.408610000000     0.454865000000     0          
C2       C      0.906250000000     0.199570000000     0.065745000000     0          
H2       H      0.888300000000     0.179450000000     0.061150000000     0          
N1       N      0.908610000000     0.234160000000     0.045135000000     0          
C2       C      0.593750000000     0.300430000000     0.065745000000     0          
H2       H      0.611700000000     0.320550000000     0.061150000000     0          
N1       N      0.591390000000     0.265840000000     0.045135000000     0          
C1       C      0.688525000000     0.003950000000     0.811475000000     0          
C2       C      0.684255000000     0.449570000000     0.843750000000     0          
H2       H      0.688850000000     0.429450000000     0.861700000000     0          
C3       C      0.703050000000     0.042750000000     0.796950000000     0          
N1       N      0.704865000000     0.484160000000     0.841390000000     0          
Zn1      Zn     0.750000000000     0.000000000000     0.875000000000     0          
C1       C      0.503950000000     0.311475000000     0.688525000000     0          
C2       C      0.949570000000     0.315745000000     0.656250000000     0          
H2       H      0.929450000000     0.311150000000     0.638300000000     0          
C3       C      0.542750000000     0.296950000000     0.703050000000     0          
N1       N      0.984160000000     0.295135000000     0.658610000000     0          
Zn1      Zn     0.500000000000     0.250000000000     0.625000000000     0          
C1       C      0.811475000000     0.496050000000     0.811475000000     0          
C2       C      0.815745000000     0.050430000000     0.843750000000     0          
H2       H      0.811150000000     0.070550000000     0.861700000000     0          
C3       C      0.796950000000     0.457250000000     0.796950000000     0          
H3A      H      0.770650000000     0.460100000000     0.787150000000     0          
H3B      H      0.797100000000     0.438600000000     0.818200000000     0          
H3C      H      0.813800000000     0.448050000000     0.776250000000     0          
N1       N      0.795135000000     0.015840000000     0.841390000000     0          
C1       C      0.996050000000     0.188525000000     0.688525000000     0          
C2       C      0.550430000000     0.184255000000     0.656250000000     0          
H2       H      0.570550000000     0.188850000000     0.638300000000     0          
C3       C      0.957250000000     0.203050000000     0.703050000000     0          
H3A      H      0.960100000000     0.229350000000     0.712850000000     0          
H3B      H      0.938600000000     0.202900000000     0.681800000000     0          
H3C      H      0.948050000000     0.186200000000     0.723750000000     0          
N1       N      0.515840000000     0.204865000000     0.658610000000     0          
C1       C      0.688525000000     0.496050000000     0.688525000000     0          
C2       C      0.684255000000     0.050430000000     0.656250000000     0          
H2       H      0.688850000000     0.070550000000     0.638300000000     0          
C3       C      0.703050000000     0.457250000000     0.703050000000     0          
N1       N      0.704865000000     0.015840000000     0.658610000000     0          
Zn1      Zn     0.750000000000     0.000000000000     0.625000000000     0          
C1       C      0.996050000000     0.311475000000     0.811475000000     0          
C2       C      0.550430000000     0.315745000000     0.843750000000     0          
H2       H      0.570550000000     0.311150000000     0.861700000000     0          
C3       C      0.957250000000     0.296950000000     0.796950000000     0          
N1       N      0.515840000000     0.295135000000     0.841390000000     0          
Zn1      Zn     0.500000000000     0.250000000000     0.875000000000     0          
C1       C      0.811475000000     0.003950000000     0.688525000000     0          
C2       C      0.815745000000     0.449570000000     0.656250000000     0          
H2       H      0.811150000000     0.429450000000     0.638300000000     0          
C3       C      0.796950000000     0.042750000000     0.703050000000     0          
H3A      H      0.770650000000     0.039900000000     0.712850000000     0          
H3B      H      0.797100000000     0.061400000000     0.681800000000     0          
H3C      H      0.813800000000     0.051950000000     0.723750000000     0          
N1       N      0.795135000000     0.484160000000     0.658610000000     0          
C1       C      0.503950000000     0.188525000000     0.811475000000     0          
C2       C      0.949570000000     0.184255000000     0.843750000000     0          
H2       H      0.929450000000     0.188850000000     0.861700000000     0          
C3       C      0.542750000000     0.203050000000     0.796950000000     0          
H3A      H      0.539900000000     0.229350000000     0.787150000000     0          
H3B      H      0.561400000000     0.202900000000     0.818200000000     0          
H3C      H      0.551950000000     0.186200000000     0.776250000000     0          
N1       N      0.984160000000     0.204865000000     0.841390000000     0          
C1       C      0.811475000000     0.188525000000     0.503950000000     0          
C2       C      0.843750000000     0.184255000000     0.949570000000     0          
H2       H      0.861700000000     0.188850000000     0.929450000000     0          
C3       C      0.796950000000     0.203050000000     0.542750000000     0          
N1       N      0.841390000000     0.204865000000     0.984160000000     0          
Zn1      Zn     0.875000000000     0.250000000000     0.500000000000     0          
C1       C      0.688525000000     0.188525000000     0.996050000000     0          
C2       C      0.684255000000     0.156250000000     0.550430000000     0          
H2       H      0.688850000000     0.138300000000     0.570550000000     0          
C3       C      0.703050000000     0.203050000000     0.957250000000     0          
H3A      H      0.729350000000     0.212850000000     0.960100000000     0          
H3B      H      0.702900000000     0.181800000000     0.938600000000     0          
H3C      H      0.686200000000     0.223750000000     0.948050000000     0          
N1       N      0.704865000000     0.158610000000     0.515840000000     0          
Zn1      Zn     0.750000000000     0.125000000000     0.500000000000     0          
C1       C      0.688525000000     0.311475000000     0.503950000000     0          
C2       C      0.656250000000     0.315745000000     0.949570000000     0          
H2       H      0.638300000000     0.311150000000     0.929450000000     0          
C3       C      0.703050000000     0.296950000000     0.542750000000     0          
N1       N      0.658610000000     0.295135000000     0.984160000000     0          
Zn1      Zn     0.625000000000     0.250000000000     0.500000000000     0          
C1       C      0.811475000000     0.311475000000     0.996050000000     0          
C2       C      0.815745000000     0.343750000000     0.550430000000     0          
H2       H      0.811150000000     0.361700000000     0.570550000000     0          
C3       C      0.796950000000     0.296950000000     0.957250000000     0          
H3A      H      0.770650000000     0.287150000000     0.960100000000     0          
H3B      H      0.797100000000     0.318200000000     0.938600000000     0          
H3C      H      0.813800000000     0.276250000000     0.948050000000     0          
N1       N      0.795135000000     0.341390000000     0.515840000000     0          
Zn1      Zn     0.750000000000     0.375000000000     0.500000000000     0          
C2       C      0.843750000000     0.315745000000     0.550430000000     0          
H2       H      0.861700000000     0.311150000000     0.570550000000     0          
N1       N      0.841390000000     0.295135000000     0.515840000000     0          
C2       C      0.815745000000     0.156250000000     0.949570000000     0          
H2       H      0.811150000000     0.138300000000     0.929450000000     0          
H3A      H      0.770650000000     0.212850000000     0.539900000000     0          
H3B      H      0.797100000000     0.181800000000     0.561400000000     0          
H3C      H      0.813800000000     0.223750000000     0.551950000000     0          
N1       N      0.795135000000     0.158610000000     0.984160000000     0          
C2       C      0.656250000000     0.184255000000     0.550430000000     0          
H2       H      0.638300000000     0.188850000000     0.570550000000     0          
N1       N      0.658610000000     0.204865000000     0.515840000000     0          
C2       C      0.684255000000     0.343750000000     0.949570000000     0          
H2       H      0.688850000000     0.361700000000     0.929450000000     0          
H3A      H      0.729350000000     0.287150000000     0.539900000000     0          
H3B      H      0.702900000000     0.318200000000     0.561400000000     0          
H3C      H      0.686200000000     0.276250000000     0.551950000000     0          
N1       N      0.704865000000     0.341390000000     0.984160000000     0          
C2       C      0.949570000000     0.343750000000     0.684255000000     0          
H2       H      0.929450000000     0.361700000000     0.688850000000     0          
H3A      H      0.539900000000     0.287150000000     0.729350000000     0          
H3B      H      0.561400000000     0.318200000000     0.702900000000     0          
H3C      H      0.551950000000     0.276250000000     0.686200000000     0          
N1       N      0.984160000000     0.341390000000     0.704865000000     0          
Zn1      Zn     0.500000000000     0.375000000000     0.750000000000     0          
C2       C      0.949570000000     0.156250000000     0.815745000000     0          
H2       H      0.929450000000     0.138300000000     0.811150000000     0          
N1       N      0.984160000000     0.158610000000     0.795135000000     0          
Zn1      Zn     0.500000000000     0.125000000000     0.750000000000     0          
C2       C      0.656250000000     0.050430000000     0.684255000000     0          
H2       H      0.638300000000     0.070550000000     0.688850000000     0          
H3A      H      0.712850000000     0.460100000000     0.729350000000     0          
H3B      H      0.681800000000     0.438600000000     0.702900000000     0          
H3C      H      0.723750000000     0.448050000000     0.686200000000     0          
N1       N      0.658610000000     0.015840000000     0.704865000000     0          
Zn1      Zn     0.625000000000     0.000000000000     0.750000000000     0          
C2       C      0.550430000000     0.343750000000     0.815745000000     0          
H2       H      0.570550000000     0.361700000000     0.811150000000     0          
H3A      H      0.960100000000     0.287150000000     0.770650000000     0          
H3B      H      0.938600000000     0.318200000000     0.797100000000     0          
H3C      H      0.948050000000     0.276250000000     0.813800000000     0          
N1       N      0.515840000000     0.341390000000     0.795135000000     0          
C2       C      0.843750000000     0.449570000000     0.684255000000     0          
H2       H      0.861700000000     0.429450000000     0.688850000000     0          
N1       N      0.841390000000     0.484160000000     0.704865000000     0          
Zn1      Zn     0.875000000000     0.000000000000     0.750000000000     0          
C2       C      0.550430000000     0.156250000000     0.684255000000     0          
H2       H      0.570550000000     0.138300000000     0.688850000000     0          
N1       N      0.515840000000     0.158610000000     0.704865000000     0          
C2       C      0.656250000000     0.449570000000     0.815745000000     0          
H2       H      0.638300000000     0.429450000000     0.811150000000     0          
H3A      H      0.712850000000     0.039900000000     0.770650000000     0          
H3B      H      0.681800000000     0.061400000000     0.797100000000     0          
H3C      H      0.723750000000     0.051950000000     0.813800000000     0          
N1       N      0.658610000000     0.484160000000     0.795135000000     0          
C2       C      0.843750000000     0.050430000000     0.815745000000     0          
H2       H      0.861700000000     0.070550000000     0.811150000000     0          
N1       N      0.841390000000     0.015840000000     0.795135000000     0          
C1       C      0.938525000000     0.253950000000     0.561475000000     0          
C2       C      0.934255000000     0.199570000000     0.593750000000     0          
H2       H      0.938850000000     0.179450000000     0.611700000000     0          
C3       C      0.953050000000     0.292750000000     0.546950000000     0          
H3A      H      0.979350000000     0.289900000000     0.537150000000     0          
H3B      H      0.952900000000     0.311400000000     0.568200000000     0          
H3C      H      0.936200000000     0.301950000000     0.526250000000     0          
N1       N      0.954865000000     0.234160000000     0.591390000000     0          
C1       C      0.753950000000     0.061475000000     0.938525000000     0          
C2       C      0.699570000000     0.065745000000     0.906250000000     0          
H2       H      0.679450000000     0.061150000000     0.888300000000     0          
C3       C      0.792750000000     0.046950000000     0.953050000000     0          
N1       N      0.734160000000     0.045135000000     0.908610000000     0          
C1       C      0.561475000000     0.246050000000     0.561475000000     0          
C2       C      0.565745000000     0.300430000000     0.593750000000     0          
H2       H      0.561150000000     0.320550000000     0.611700000000     0          
C3       C      0.546950000000     0.207250000000     0.546950000000     0          
H3A      H      0.520650000000     0.210100000000     0.537150000000     0          
H3B      H      0.547100000000     0.188600000000     0.568200000000     0          
H3C      H      0.563800000000     0.198050000000     0.526250000000     0          
N1       N      0.545135000000     0.265840000000     0.591390000000     0          
C1       C      0.746050000000     0.438525000000     0.938525000000     0          
C2       C      0.800430000000     0.434255000000     0.906250000000     0          
H2       H      0.820550000000     0.438850000000     0.888300000000     0          
C3       C      0.707250000000     0.453050000000     0.953050000000     0          
H3A      H      0.710100000000     0.479350000000     0.962850000000     0          
H3B      H      0.688600000000     0.452900000000     0.931800000000     0          
H3C      H      0.698050000000     0.436200000000     0.973750000000     0          
N1       N      0.765840000000     0.454865000000     0.908610000000     0          
C1       C      0.938525000000     0.246050000000     0.938525000000     0          
C2       C      0.934255000000     0.300430000000     0.906250000000     0          
H2       H      0.938850000000     0.320550000000     0.888300000000     0          
C3       C      0.953050000000     0.207250000000     0.953050000000     0          
H3A      H      0.979350000000     0.210100000000     0.962850000000     0          
H3B      H      0.952900000000     0.188600000000     0.931800000000     0          
H3C      H      0.936200000000     0.198050000000     0.973750000000     0          
N1       N      0.954865000000     0.265840000000     0.908610000000     0          
C1       C      0.746050000000     0.061475000000     0.561475000000     0          
C2       C      0.800430000000     0.065745000000     0.593750000000     0          
H2       H      0.820550000000     0.061150000000     0.611700000000     0          
C3       C      0.707250000000     0.046950000000     0.546950000000     0          
N1       N      0.765840000000     0.045135000000     0.591390000000     0          
C1       C      0.561475000000     0.253950000000     0.938525000000     0          
C2       C      0.565745000000     0.199570000000     0.906250000000     0          
H2       H      0.561150000000     0.179450000000     0.888300000000     0          
C3       C      0.546950000000     0.292750000000     0.953050000000     0          
N1       N      0.545135000000     0.234160000000     0.908610000000     0          
C1       C      0.753950000000     0.438525000000     0.561475000000     0          
C2       C      0.699570000000     0.434255000000     0.593750000000     0          
H2       H      0.679450000000     0.438850000000     0.611700000000     0          
C3       C      0.792750000000     0.453050000000     0.546950000000     0          
N1       N      0.734160000000     0.454865000000     0.591390000000     0          
C1       C      0.561475000000     0.438525000000     0.753950000000     0          
C2       C      0.593750000000     0.434255000000     0.699570000000     0          
H2       H      0.611700000000     0.438850000000     0.679450000000     0          
C3       C      0.546950000000     0.453050000000     0.792750000000     0          
N1       N      0.591390000000     0.454865000000     0.734160000000     0          
C1       C      0.938525000000     0.438525000000     0.746050000000     0          
C2       C      0.934255000000     0.406250000000     0.800430000000     0          
H2       H      0.938850000000     0.388300000000     0.820550000000     0          
C3       C      0.953050000000     0.453050000000     0.707250000000     0          
H3A      H      0.979350000000     0.462850000000     0.710100000000     0          
H3B      H      0.952900000000     0.431800000000     0.688600000000     0          
H3C      H      0.936200000000     0.473750000000     0.698050000000     0          
N1       N      0.954865000000     0.408610000000     0.765840000000     0          
C1       C      0.938525000000     0.061475000000     0.753950000000     0          
C2       C      0.906250000000     0.065745000000     0.699570000000     0          
H2       H      0.888300000000     0.061150000000     0.679450000000     0          
C3       C      0.953050000000     0.046950000000     0.792750000000     0          
N1       N      0.908610000000     0.045135000000     0.734160000000     0          
C1       C      0.561475000000     0.061475000000     0.746050000000     0          
C2       C      0.565745000000     0.093750000000     0.800430000000     0          
H2       H      0.561150000000     0.111700000000     0.820550000000     0          
C3       C      0.546950000000     0.046950000000     0.707250000000     0          
H3A      H      0.520650000000     0.037150000000     0.710100000000     0          
H3B      H      0.547100000000     0.068200000000     0.688600000000     0          
H3C      H      0.563800000000     0.026250000000     0.698050000000     0          
N1       N      0.545135000000     0.091390000000     0.765840000000     0          
C2       C      0.593750000000     0.065745000000     0.800430000000     0          
H2       H      0.611700000000     0.061150000000     0.820550000000     0          
N1       N      0.591390000000     0.045135000000     0.765840000000     0          
C2       C      0.565745000000     0.406250000000     0.699570000000     0          
H2       H      0.561150000000     0.388300000000     0.679450000000     0          
H3A      H      0.520650000000     0.462850000000     0.789900000000     0          
H3B      H      0.547100000000     0.431800000000     0.811400000000     0          
H3C      H      0.563800000000     0.473750000000     0.801950000000     0          
N1       N      0.545135000000     0.408610000000     0.734160000000     0          
C2       C      0.906250000000     0.434255000000     0.800430000000     0          
H2       H      0.888300000000     0.438850000000     0.820550000000     0          
N1       N      0.908610000000     0.454865000000     0.765840000000     0          
C2       C      0.934255000000     0.093750000000     0.699570000000     0          
H2       H      0.938850000000     0.111700000000     0.679450000000     0          
H3A      H      0.979350000000     0.037150000000     0.789900000000     0          
H3B      H      0.952900000000     0.068200000000     0.811400000000     0          
H3C      H      0.936200000000     0.026250000000     0.801950000000     0          
N1       N      0.954865000000     0.091390000000     0.734160000000     0          
C2       C      0.699570000000     0.093750000000     0.934255000000     0          
H2       H      0.679450000000     0.111700000000     0.938850000000     0          
H3A      H      0.789900000000     0.037150000000     0.979350000000     0          
H3B      H      0.811400000000     0.068200000000     0.952900000000     0          
H3C      H      0.801950000000     0.026250000000     0.936200000000     0          
N1       N      0.734160000000     0.091390000000     0.954865000000     0          
C2       C      0.699570000000     0.406250000000     0.565745000000     0          
H2       H      0.679450000000     0.388300000000     0.561150000000     0          
H3A      H      0.789900000000     0.462850000000     0.520650000000     0          
H3B      H      0.811400000000     0.431800000000     0.547100000000     0          
H3C      H      0.801950000000     0.473750000000     0.563800000000     0          
N1       N      0.734160000000     0.408610000000     0.545135000000     0          
C2       C      0.906250000000     0.300430000000     0.934255000000     0          
H2       H      0.888300000000     0.320550000000     0.938850000000     0          
N1       N      0.908610000000     0.265840000000     0.954865000000     0          
C2       C      0.800430000000     0.093750000000     0.565745000000     0          
H2       H      0.820550000000     0.111700000000     0.561150000000     0          
H3A      H      0.710100000000     0.037150000000     0.520650000000     0          
H3B      H      0.688600000000     0.068200000000     0.547100000000     0          
H3C      H      0.698050000000     0.026250000000     0.563800000000     0          
N1       N      0.765840000000     0.091390000000     0.545135000000     0          
C2       C      0.593750000000     0.199570000000     0.934255000000     0          
H2       H      0.611700000000     0.179450000000     0.938850000000     0          
H3A      H      0.537150000000     0.289900000000     0.979350000000     0          
H3B      H      0.568200000000     0.311400000000     0.952900000000     0          
H3C      H      0.526250000000     0.301950000000     0.936200000000     0          
N1       N      0.591390000000     0.234160000000     0.954865000000     0          
C2       C      0.800430000000     0.406250000000     0.934255000000     0          
H2       H      0.820550000000     0.388300000000     0.938850000000     0          
N1       N      0.765840000000     0.408610000000     0.954865000000     0          
C2       C      0.906250000000     0.199570000000     0.565745000000     0          
H2       H      0.888300000000     0.179450000000     0.561150000000     0          
N1       N      0.908610000000     0.234160000000     0.545135000000     0          
C2       C      0.593750000000     0.300430000000     0.565745000000     0          
H2       H      0.611700000000     0.320550000000     0.561150000000     0          
N1       N      0.591390000000     0.265840000000     0.545135000000     0          
C1       C      0.688525000000     0.503950000000     0.311475000000     0          
C2       C      0.684255000000     0.949570000000     0.343750000000     0          
H2       H      0.688850000000     0.929450000000     0.361700000000     0          
C3       C      0.703050000000     0.542750000000     0.296950000000     0          
N1       N      0.704865000000     0.984160000000     0.341390000000     0          
Zn1      Zn     0.750000000000     0.500000000000     0.375000000000     0          
C1       C      0.503950000000     0.811475000000     0.188525000000     0          
C2       C      0.949570000000     0.815745000000     0.156250000000     0          
H2       H      0.929450000000     0.811150000000     0.138300000000     0          
C3       C      0.542750000000     0.796950000000     0.203050000000     0          
N1       N      0.984160000000     0.795135000000     0.158610000000     0          
Zn1      Zn     0.500000000000     0.750000000000     0.125000000000     0          
C1       C      0.811475000000     0.996050000000     0.311475000000     0          
C2       C      0.815745000000     0.550430000000     0.343750000000     0          
H2       H      0.811150000000     0.570550000000     0.361700000000     0          
C3       C      0.796950000000     0.957250000000     0.296950000000     0          
H3A      H      0.770650000000     0.960100000000     0.287150000000     0          
H3B      H      0.797100000000     0.938600000000     0.318200000000     0          
H3C      H      0.813800000000     0.948050000000     0.276250000000     0          
N1       N      0.795135000000     0.515840000000     0.341390000000     0          
C1       C      0.996050000000     0.688525000000     0.188525000000     0          
C2       C      0.550430000000     0.684255000000     0.156250000000     0          
H2       H      0.570550000000     0.688850000000     0.138300000000     0          
C3       C      0.957250000000     0.703050000000     0.203050000000     0          
H3A      H      0.960100000000     0.729350000000     0.212850000000     0          
H3B      H      0.938600000000     0.702900000000     0.181800000000     0          
H3C      H      0.948050000000     0.686200000000     0.223750000000     0          
N1       N      0.515840000000     0.704865000000     0.158610000000     0          
C1       C      0.688525000000     0.996050000000     0.188525000000     0          
C2       C      0.684255000000     0.550430000000     0.156250000000     0          
H2       H      0.688850000000     0.570550000000     0.138300000000     0          
C3       C      0.703050000000     0.957250000000     0.203050000000     0          
N1       N      0.704865000000     0.515840000000     0.158610000000     0          
Zn1      Zn     0.750000000000     0.500000000000     0.125000000000     0          
C1       C      0.996050000000     0.811475000000     0.311475000000     0          
C2       C      0.550430000000     0.815745000000     0.343750000000     0          
H2       H      0.570550000000     0.811150000000     0.361700000000     0          
C3       C      0.957250000000     0.796950000000     0.296950000000     0          
N1       N      0.515840000000     0.795135000000     0.341390000000     0          
Zn1      Zn     0.500000000000     0.750000000000     0.375000000000     0          
C1       C      0.811475000000     0.503950000000     0.188525000000     0          
C2       C      0.815745000000     0.949570000000     0.156250000000     0          
H2       H      0.811150000000     0.929450000000     0.138300000000     0          
C3       C      0.796950000000     0.542750000000     0.203050000000     0          
H3A      H      0.770650000000     0.539900000000     0.212850000000     0          
H3B      H      0.797100000000     0.561400000000     0.181800000000     0          
H3C      H      0.813800000000     0.551950000000     0.223750000000     0          
N1       N      0.795135000000     0.984160000000     0.158610000000     0          
C1       C      0.503950000000     0.688525000000     0.311475000000     0          
C2       C      0.949570000000     0.684255000000     0.343750000000     0          
H2       H      0.929450000000     0.688850000000     0.361700000000     0          
C3       C      0.542750000000     0.703050000000     0.296950000000     0          
H3A      H      0.539900000000     0.729350000000     0.287150000000     0          
H3B      H      0.561400000000     0.702900000000     0.318200000000     0          
H3C      H      0.551950000000     0.686200000000     0.276250000000     0          
N1       N      0.984160000000     0.704865000000     0.341390000000     0          
C1       C      0.811475000000     0.688525000000     0.003950000000     0          
C2       C      0.843750000000     0.684255000000     0.449570000000     0          
H2       H      0.861700000000     0.688850000000     0.429450000000     0          
C3       C      0.796950000000     0.703050000000     0.042750000000     0          
N1       N      0.841390000000     0.704865000000     0.484160000000     0          
Zn1      Zn     0.875000000000     0.750000000000     0.000000000000     0          
C1       C      0.688525000000     0.688525000000     0.496050000000     0          
C2       C      0.684255000000     0.656250000000     0.050430000000     0          
H2       H      0.688850000000     0.638300000000     0.070550000000     0          
C3       C      0.703050000000     0.703050000000     0.457250000000     0          
H3A      H      0.729350000000     0.712850000000     0.460100000000     0          
H3B      H      0.702900000000     0.681800000000     0.438600000000     0          
H3C      H      0.686200000000     0.723750000000     0.448050000000     0          
N1       N      0.704865000000     0.658610000000     0.015840000000     0          
Zn1      Zn     0.750000000000     0.625000000000     0.000000000000     0          
C1       C      0.688525000000     0.811475000000     0.003950000000     0          
C2       C      0.656250000000     0.815745000000     0.449570000000     0          
H2       H      0.638300000000     0.811150000000     0.429450000000     0          
C3       C      0.703050000000     0.796950000000     0.042750000000     0          
N1       N      0.658610000000     0.795135000000     0.484160000000     0          
Zn1      Zn     0.625000000000     0.750000000000     0.000000000000     0          
C1       C      0.811475000000     0.811475000000     0.496050000000     0          
C2       C      0.815745000000     0.843750000000     0.050430000000     0          
H2       H      0.811150000000     0.861700000000     0.070550000000     0          
C3       C      0.796950000000     0.796950000000     0.457250000000     0          
H3A      H      0.770650000000     0.787150000000     0.460100000000     0          
H3B      H      0.797100000000     0.818200000000     0.438600000000     0          
H3C      H      0.813800000000     0.776250000000     0.448050000000     0          
N1       N      0.795135000000     0.841390000000     0.015840000000     0          
Zn1      Zn     0.750000000000     0.875000000000     0.000000000000     0          
C2       C      0.843750000000     0.815745000000     0.050430000000     0          
H2       H      0.861700000000     0.811150000000     0.070550000000     0          
N1       N      0.841390000000     0.795135000000     0.015840000000     0          
C2       C      0.815745000000     0.656250000000     0.449570000000     0          
H2       H      0.811150000000     0.638300000000     0.429450000000     0          
H3A      H      0.770650000000     0.712850000000     0.039900000000     0          
H3B      H      0.797100000000     0.681800000000     0.061400000000     0          
H3C      H      0.813800000000     0.723750000000     0.051950000000     0          
N1       N      0.795135000000     0.658610000000     0.484160000000     0          
C2       C      0.656250000000     0.684255000000     0.050430000000     0          
H2       H      0.638300000000     0.688850000000     0.070550000000     0          
N1       N      0.658610000000     0.704865000000     0.015840000000     0          
C2       C      0.684255000000     0.843750000000     0.449570000000     0          
H2       H      0.688850000000     0.861700000000     0.429450000000     0          
H3A      H      0.729350000000     0.787150000000     0.039900000000     0          
H3B      H      0.702900000000     0.818200000000     0.061400000000     0          
H3C      H      0.686200000000     0.776250000000     0.051950000000     0          
N1       N      0.704865000000     0.841390000000     0.484160000000     0          
C2       C      0.949570000000     0.843750000000     0.184255000000     0          
H2       H      0.929450000000     0.861700000000     0.188850000000     0          
H3A      H      0.539900000000     0.787150000000     0.229350000000     0          
H3B      H      0.561400000000     0.818200000000     0.202900000000     0          
H3C      H      0.551950000000     0.776250000000     0.186200000000     0          
N1       N      0.984160000000     0.841390000000     0.204865000000     0          
Zn1      Zn     0.500000000000     0.875000000000     0.250000000000     0          
C2       C      0.949570000000     0.656250000000     0.315745000000     0          
H2       H      0.929450000000     0.638300000000     0.311150000000     0          
N1       N      0.984160000000     0.658610000000     0.295135000000     0          
Zn1      Zn     0.500000000000     0.625000000000     0.250000000000     0          
C2       C      0.656250000000     0.550430000000     0.184255000000     0          
H2       H      0.638300000000     0.570550000000     0.188850000000     0          
H3A      H      0.712850000000     0.960100000000     0.229350000000     0          
H3B      H      0.681800000000     0.938600000000     0.202900000000     0          
H3C      H      0.723750000000     0.948050000000     0.186200000000     0          
N1       N      0.658610000000     0.515840000000     0.204865000000     0          
Zn1      Zn     0.625000000000     0.500000000000     0.250000000000     0          
C2       C      0.550430000000     0.843750000000     0.315745000000     0          
H2       H      0.570550000000     0.861700000000     0.311150000000     0          
H3A      H      0.960100000000     0.787150000000     0.270650000000     0          
H3B      H      0.938600000000     0.818200000000     0.297100000000     0          
H3C      H      0.948050000000     0.776250000000     0.313800000000     0          
N1       N      0.515840000000     0.841390000000     0.295135000000     0          
C2       C      0.843750000000     0.949570000000     0.184255000000     0          
H2       H      0.861700000000     0.929450000000     0.188850000000     0          
N1       N      0.841390000000     0.984160000000     0.204865000000     0          
Zn1      Zn     0.875000000000     0.500000000000     0.250000000000     0          
C2       C      0.550430000000     0.656250000000     0.184255000000     0          
H2       H      0.570550000000     0.638300000000     0.188850000000     0          
N1       N      0.515840000000     0.658610000000     0.204865000000     0          
C2       C      0.656250000000     0.949570000000     0.315745000000     0          
H2       H      0.638300000000     0.929450000000     0.311150000000     0          
H3A      H      0.712850000000     0.539900000000     0.270650000000     0          
H3B      H      0.681800000000     0.561400000000     0.297100000000     0          
H3C      H      0.723750000000     0.551950000000     0.313800000000     0          
N1       N      0.658610000000     0.984160000000     0.295135000000     0          
C2       C      0.843750000000     0.550430000000     0.315745000000     0          
H2       H      0.861700000000     0.570550000000     0.311150000000     0          
N1       N      0.841390000000     0.515840000000     0.295135000000     0          
C1       C      0.938525000000     0.753950000000     0.061475000000     0          
C2       C      0.934255000000     0.699570000000     0.093750000000     0          
H2       H      0.938850000000     0.679450000000     0.111700000000     0          
C3       C      0.953050000000     0.792750000000     0.046950000000     0          
H3A      H      0.979350000000     0.789900000000     0.037150000000     0          
H3B      H      0.952900000000     0.811400000000     0.068200000000     0          
H3C      H      0.936200000000     0.801950000000     0.026250000000     0          
N1       N      0.954865000000     0.734160000000     0.091390000000     0          
C1       C      0.753950000000     0.561475000000     0.438525000000     0          
C2       C      0.699570000000     0.565745000000     0.406250000000     0          
H2       H      0.679450000000     0.561150000000     0.388300000000     0          
C3       C      0.792750000000     0.546950000000     0.453050000000     0          
N1       N      0.734160000000     0.545135000000     0.408610000000     0          
C1       C      0.561475000000     0.746050000000     0.061475000000     0          
C2       C      0.565745000000     0.800430000000     0.093750000000     0          
H2       H      0.561150000000     0.820550000000     0.111700000000     0          
C3       C      0.546950000000     0.707250000000     0.046950000000     0          
H3A      H      0.520650000000     0.710100000000     0.037150000000     0          
H3B      H      0.547100000000     0.688600000000     0.068200000000     0          
H3C      H      0.563800000000     0.698050000000     0.026250000000     0          
N1       N      0.545135000000     0.765840000000     0.091390000000     0          
C1       C      0.746050000000     0.938525000000     0.438525000000     0          
C2       C      0.800430000000     0.934255000000     0.406250000000     0          
H2       H      0.820550000000     0.938850000000     0.388300000000     0          
C3       C      0.707250000000     0.953050000000     0.453050000000     0          
H3A      H      0.710100000000     0.979350000000     0.462850000000     0          
H3B      H      0.688600000000     0.952900000000     0.431800000000     0          
H3C      H      0.698050000000     0.936200000000     0.473750000000     0          
N1       N      0.765840000000     0.954865000000     0.408610000000     0          
C1       C      0.938525000000     0.746050000000     0.438525000000     0          
C2       C      0.934255000000     0.800430000000     0.406250000000     0          
H2       H      0.938850000000     0.820550000000     0.388300000000     0          
C3       C      0.953050000000     0.707250000000     0.453050000000     0          
H3A      H      0.979350000000     0.710100000000     0.462850000000     0          
H3B      H      0.952900000000     0.688600000000     0.431800000000     0          
H3C      H      0.936200000000     0.698050000000     0.473750000000     0          
N1       N      0.954865000000     0.765840000000     0.408610000000     0          
C1       C      0.746050000000     0.561475000000     0.061475000000     0          
C2       C      0.800430000000     0.565745000000     0.093750000000     0          
H2       H      0.820550000000     0.561150000000     0.111700000000     0          
C3       C      0.707250000000     0.546950000000     0.046950000000     0          
N1       N      0.765840000000     0.545135000000     0.091390000000     0          
C1       C      0.561475000000     0.753950000000     0.438525000000     0          
C2       C      0.565745000000     0.699570000000     0.406250000000     0          
H2       H      0.561150000000     0.679450000000     0.388300000000     0          
C3       C      0.546950000000     0.792750000000     0.453050000000     0          
N1       N      0.545135000000     0.734160000000     0.408610000000     0          
C1       C      0.753950000000     0.938525000000     0.061475000000     0          
C2       C      0.699570000000     0.934255000000     0.093750000000     0          
H2       H      0.679450000000     0.938850000000     0.111700000000     0          
C3       C      0.792750000000     0.953050000000     0.046950000000     0          
N1       N      0.734160000000     0.954865000000     0.091390000000     0          
C1       C      0.561475000000     0.938525000000     0.253950000000     0          
C2       C      0.593750000000     0.934255000000     0.199570000000     0          
H2       H      0.611700000000     0.938850000000     0.179450000000     0          
C3       C      0.546950000000     0.953050000000     0.292750000000     0          
N1       N      0.591390000000     0.954865000000     0.234160000000     0          
C1       C      0.938525000000     0.938525000000     0.246050000000     0          
C2       C      0.934255000000     0.906250000000     0.300430000000     0          
H2       H      0.938850000000     0.888300000000     0.320550000000     0          
C3       C      0.953050000000     0.953050000000     0.207250000000     0          
H3A      H      0.979350000000     0.962850000000     0.210100000000     0          
H3B      H      0.952900000000     0.931800000000     0.188600000000     0          
H3C      H      0.936200000000     0.973750000000     0.198050000000     0          
N1       N      0.954865000000     0.908610000000     0.265840000000     0          
C1       C      0.938525000000     0.561475000000     0.253950000000     0          
C2       C      0.906250000000     0.565745000000     0.199570000000     0          
H2       H      0.888300000000     0.561150000000     0.179450000000     0          
C3       C      0.953050000000     0.546950000000     0.292750000000     0          
N1       N      0.908610000000     0.545135000000     0.234160000000     0          
C1       C      0.561475000000     0.561475000000     0.246050000000     0          
C2       C      0.565745000000     0.593750000000     0.300430000000     0          
H2       H      0.561150000000     0.611700000000     0.320550000000     0          
C3       C      0.546950000000     0.546950000000     0.207250000000     0          
H3A      H      0.520650000000     0.537150000000     0.210100000000     0          
H3B      H      0.547100000000     0.568200000000     0.188600000000     0          
H3C      H      0.563800000000     0.526250000000     0.198050000000     0          
N1       N      0.545135000000     0.591390000000     0.265840000000     0          
C2       C      0.593750000000     0.565745000000     0.300430000000     0          
H2       H      0.611700000000     0.561150000000     0.320550000000     0          
N1       N      0.591390000000     0.545135000000     0.265840000000     0          
C2       C      0.565745000000     0.906250000000     0.199570000000     0          
H2       H      0.561150000000     0.888300000000     0.179450000000     0          
H3A      H      0.520650000000     0.962850000000     0.289900000000     0          
H3B      H      0.547100000000     0.931800000000     0.311400000000     0          
H3C      H      0.563800000000     0.973750000000     0.301950000000     0          
N1       N      0.545135000000     0.908610000000     0.234160000000     0          
C2       C      0.906250000000     0.934255000000     0.300430000000     0          
H2       H      0.888300000000     0.938850000000     0.320550000000     0          
N1       N      0.908610000000     0.954865000000     0.265840000000     0          
C2       C      0.934255000000     0.593750000000     0.199570000000     0          
H2       H      0.938850000000     0.611700000000     0.179450000000     0          
H3A      H      0.979350000000     0.537150000000     0.289900000000     0          
H3B      H      0.952900000000     0.568200000000     0.311400000000     0          
H3C      H      0.936200000000     0.526250000000     0.301950000000     0          
N1       N      0.954865000000     0.591390000000     0.234160000000     0          
C2       C      0.699570000000     0.593750000000     0.434255000000     0          
H2       H      0.679450000000     0.611700000000     0.438850000000     0          
H3A      H      0.789900000000     0.537150000000     0.479350000000     0          
H3B      H      0.811400000000     0.568200000000     0.452900000000     0          
H3C      H      0.801950000000     0.526250000000     0.436200000000     0          
N1       N      0.734160000000     0.591390000000     0.454865000000     0          
C2       C      0.699570000000     0.906250000000     0.065745000000     0          
H2       H      0.679450000000     0.888300000000     0.061150000000     0          
H3A      H      0.789900000000     0.962850000000     0.020650000000     0          
H3B      H      0.811400000000     0.931800000000     0.047100000000     0          
H3C      H      0.801950000000     0.973750000000     0.063800000000     0          
N1       N      0.734160000000     0.908610000000     0.045135000000     0          
C2       C      0.906250000000     0.800430000000     0.434255000000     0          
H2       H      0.888300000000     0.820550000000     0.438850000000     0          
N1       N      0.908610000000     0.765840000000     0.454865000000     0          
C2       C      0.800430000000     0.593750000000     0.065745000000     0          
H2       H      0.820550000000     0.611700000000     0.061150000000     0          
H3A      H      0.710100000000     0.537150000000     0.020650000000     0          
H3B      H      0.688600000000     0.568200000000     0.047100000000     0          
H3C      H      0.698050000000     0.526250000000     0.063800000000     0          
N1       N      0.765840000000     0.591390000000     0.045135000000     0          
C2       C      0.593750000000     0.699570000000     0.434255000000     0          
H2       H      0.611700000000     0.679450000000     0.438850000000     0          
H3A      H      0.537150000000     0.789900000000     0.479350000000     0          
H3B      H      0.568200000000     0.811400000000     0.452900000000     0          
H3C      H      0.526250000000     0.801950000000     0.436200000000     0          
N1       N      0.591390000000     0.734160000000     0.454865000000     0          
C2       C      0.800430000000     0.906250000000     0.434255000000     0          
H2       H      0.820550000000     0.888300000000     0.438850000000     0          
N1       N      0.765840000000     0.908610000000     0.454865000000     0          
C2       C      0.906250000000     0.699570000000     0.065745000000     0          
H2       H      0.888300000000     0.679450000000     0.061150000000     0          
N1       N      0.908610000000     0.734160000000     0.045135000000     0          
C2       C      0.593750000000     0.800430000000     0.065745000000     0          
H2       H      0.611700000000     0.820550000000     0.061150000000     0          
N1       N      0.591390000000     0.765840000000     0.045135000000     0          
C1       C      0.688525000000     0.503950000000     0.811475000000     0          
C2       C      0.684255000000     0.949570000000     0.843750000000     0          
H2       H      0.688850000000     0.929450000000     0.861700000000     0          
C3       C      0.703050000000     0.542750000000     0.796950000000     0          
N1       N      0.704865000000     0.984160000000     0.841390000000     0          
Zn1      Zn     0.750000000000     0.500000000000     0.875000000000     0          
C1       C      0.503950000000     0.811475000000     0.688525000000     0          
C2       C      0.949570000000     0.815745000000     0.656250000000     0          
H2       H      0.929450000000     0.811150000000     0.638300000000     0          
C3       C      0.542750000000     0.796950000000     0.703050000000     0          
N1       N      0.984160000000     0.795135000000     0.658610000000     0          
Zn1      Zn     0.500000000000     0.750000000000     0.625000000000     0          
C1       C      0.811475000000     0.996050000000     0.811475000000     0          
C2       C      0.815745000000     0.550430000000     0.843750000000     0          
H2       H      0.811150000000     0.570550000000     0.861700000000     0          
C3       C      0.796950000000     0.957250000000     0.796950000000     0          
H3A      H      0.770650000000     0.960100000000     0.787150000000     0          
H3B      H      0.797100000000     0.938600000000     0.818200000000     0          
H3C      H      0.813800000000     0.948050000000     0.776250000000     0          
N1       N      0.795135000000     0.515840000000     0.841390000000     0          
C1       C      0.996050000000     0.688525000000     0.688525000000     0          
C2       C      0.550430000000     0.684255000000     0.656250000000     0          
H2       H      0.570550000000     0.688850000000     0.638300000000     0          
C3       C      0.957250000000     0.703050000000     0.703050000000     0          
H3A      H      0.960100000000     0.729350000000     0.712850000000     0          
H3B      H      0.938600000000     0.702900000000     0.681800000000     0          
H3C      H      0.948050000000     0.686200000000     0.723750000000     0          
N1       N      0.515840000000     0.704865000000     0.658610000000     0          
C1       C      0.688525000000     0.996050000000     0.688525000000     0          
C2       C      0.684255000000     0.550430000000     0.656250000000     0          
H2       H      0.688850000000     0.570550000000     0.638300000000     0          
C3       C      0.703050000000     0.957250000000     0.703050000000     0          
N1       N      0.704865000000     0.515840000000     0.658610000000     0          
Zn1      Zn     0.750000000000     0.500000000000     0.625000000000     0          
C1       C      0.996050000000     0.811475000000     0.811475000000     0          
C2       C      0.550430000000     0.815745000000     0.843750000000     0          
H2       H      0.570550000000     0.811150000000     0.861700000000     0          
C3       C      0.957250000000     0.796950000000     0.796950000000     0          
N1       N      0.515840000000     0.795135000000     0.841390000000     0          
Zn1      Zn     0.500000000000     0.750000000000     0.875000000000     0          
C1       C      0.811475000000     0.503950000000     0.688525000000     0          
C2       C      0.815745000000     0.949570000000     0.656250000000     0          
H2       H      0.811150000000     0.929450000000     0.638300000000     0          
C3       C      0.796950000000     0.542750000000     0.703050000000     0          
H3A      H      0.770650000000     0.539900000000     0.712850000000     0          
H3B      H      0.797100000000     0.561400000000     0.681800000000     0          
H3C      H      0.813800000000     0.551950000000     0.723750000000     0          
N1       N      0.795135000000     0.984160000000     0.658610000000     0          
C1       C      0.503950000000     0.688525000000     0.811475000000     0          
C2       C      0.949570000000     0.684255000000     0.843750000000     0          
H2       H      0.929450000000     0.688850000000     0.861700000000     0          
C3       C      0.542750000000     0.703050000000     0.796950000000     0          
H3A      H      0.539900000000     0.729350000000     0.787150000000     0          
H3B      H      0.561400000000     0.702900000000     0.818200000000     0          
H3C      H      0.551950000000     0.686200000000     0.776250000000     0          
N1       N      0.984160000000     0.704865000000     0.841390000000     0          
C1       C      0.811475000000     0.688525000000     0.503950000000     0          
C2       C      0.843750000000     0.684255000000     0.949570000000     0          
H2       H      0.861700000000     0.688850000000     0.929450000000     0          
C3       C      0.796950000000     0.703050000000     0.542750000000     0          
N1       N      0.841390000000     0.704865000000     0.984160000000     0          
Zn1      Zn     0.875000000000     0.750000000000     0.500000000000     0          
C1       C      0.688525000000     0.688525000000     0.996050000000     0          
C2       C      0.684255000000     0.656250000000     0.550430000000     0          
H2       H      0.688850000000     0.638300000000     0.570550000000     0          
C3       C      0.703050000000     0.703050000000     0.957250000000     0          
H3A      H      0.729350000000     0.712850000000     0.960100000000     0          
H3B      H      0.702900000000     0.681800000000     0.938600000000     0          
H3C      H      0.686200000000     0.723750000000     0.948050000000     0          
N1       N      0.704865000000     0.658610000000     0.515840000000     0          
Zn1      Zn     0.750000000000     0.625000000000     0.500000000000     0          
C1       C      0.688525000000     0.811475000000     0.503950000000     0          
C2       C      0.656250000000     0.815745000000     0.949570000000     0          
H2       H      0.638300000000     0.811150000000     0.929450000000     0          
C3       C      0.703050000000     0.796950000000     0.542750000000     0          
N1       N      0.658610000000     0.795135000000     0.984160000000     0          
Zn1      Zn     0.625000000000     0.750000000000     0.500000000000     0          
C1       C      0.811475000000     0.811475000000     0.996050000000     0          
C2       C      0.815745000000     0.843750000000     0.550430000000     0          
H2       H      0.811150000000     0.861700000000     0.570550000000     0          
C3       C      0.796950000000     0.796950000000     0.957250000000     0          
H3A      H      0.770650000000     0.787150000000     0.960100000000     0          
H3B      H      0.797100000000     0.818200000000     0.938600000000     0          
H3C      H      0.813800000000     0.776250000000     0.948050000000     0          
N1       N      0.795135000000     0.841390000000     0.515840000000     0          
Zn1      Zn     0.750000000000     0.875000000000     0.500000000000     0          
C2       C      0.843750000000     0.815745000000     0.550430000000     0          
H2       H      0.861700000000     0.811150000000     0.570550000000     0          
N1       N      0.841390000000     0.795135000000     0.515840000000     0          
C2       C      0.815745000000     0.656250000000     0.949570000000     0          
H2       H      0.811150000000     0.638300000000     0.929450000000     0          
H3A      H      0.770650000000     0.712850000000     0.539900000000     0          
H3B      H      0.797100000000     0.681800000000     0.561400000000     0          
H3C      H      0.813800000000     0.723750000000     0.551950000000     0          
N1       N      0.795135000000     0.658610000000     0.984160000000     0          
C2       C      0.656250000000     0.684255000000     0.550430000000     0          
H2       H      0.638300000000     0.688850000000     0.570550000000     0          
N1       N      0.658610000000     0.704865000000     0.515840000000     0          
C2       C      0.684255000000     0.843750000000     0.949570000000     0          
H2       H      0.688850000000     0.861700000000     0.929450000000     0          
H3A      H      0.729350000000     0.787150000000     0.539900000000     0          
H3B      H      0.702900000000     0.818200000000     0.561400000000     0          
H3C      H      0.686200000000     0.776250000000     0.551950000000     0          
N1       N      0.704865000000     0.841390000000     0.984160000000     0          
C2       C      0.949570000000     0.843750000000     0.684255000000     0          
H2       H      0.929450000000     0.861700000000     0.688850000000     0          
H3A      H      0.539900000000     0.787150000000     0.729350000000     0          
H3B      H      0.561400000000     0.818200000000     0.702900000000     0          
H3C      H      0.551950000000     0.776250000000     0.686200000000     0          
N1       N      0.984160000000     0.841390000000     0.704865000000     0          
Zn1      Zn     0.500000000000     0.875000000000     0.750000000000     0          
C2       C      0.949570000000     0.656250000000     0.815745000000     0          
H2       H      0.929450000000     0.638300000000     0.811150000000     0          
N1       N      0.984160000000     0.658610000000     0.795135000000     0          
Zn1      Zn     0.500000000000     0.625000000000     0.750000000000     0          
C2       C      0.656250000000     0.550430000000     0.684255000000     0          
H2       H      0.638300000000     0.570550000000     0.688850000000     0          
H3A      H      0.712850000000     0.960100000000     0.729350000000     0          
H3B      H      0.681800000000     0.938600000000     0.702900000000     0          
H3C      H      0.723750000000     0.948050000000     0.686200000000     0          
N1       N      0.658610000000     0.515840000000     0.704865000000     0          
Zn1      Zn     0.625000000000     0.500000000000     0.750000000000     0          
C2       C      0.550430000000     0.843750000000     0.815745000000     0          
H2       H      0.570550000000     0.861700000000     0.811150000000     0          
H3A      H      0.960100000000     0.787150000000     0.770650000000     0          
H3B      H      0.938600000000     0.818200000000     0.797100000000     0          
H3C      H      0.948050000000     0.776250000000     0.813800000000     0          
N1       N      0.515840000000     0.841390000000     0.795135000000     0          
C2       C      0.843750000000     0.949570000000     0.684255000000     0          
H2       H      0.861700000000     0.929450000000     0.688850000000     0          
N1       N      0.841390000000     0.984160000000     0.704865000000     0          
Zn1      Zn     0.875000000000     0.500000000000     0.750000000000     0          
C2       C      0.550430000000     0.656250000000     0.684255000000     0          
H2       H      0.570550000000     0.638300000000     0.688850000000     0          
N1       N      0.515840000000     0.658610000000     0.704865000000     0          
C2       C      0.656250000000     0.949570000000     0.815745000000     0          
H2       H      0.638300000000     0.929450000000     0.811150000000     0          
H3A      H      0.712850000000     0.539900000000     0.770650000000     0          
H3B      H      0.681800000000     0.561400000000     0.797100000000     0          
H3C      H      0.723750000000     0.551950000000     0.813800000000     0          
N1       N      0.658610000000     0.984160000000     0.795135000000     0          
C2       C      0.843750000000     0.550430000000     0.815745000000     0          
H2       H      0.861700000000     0.570550000000     0.811150000000     0          
N1       N      0.841390000000     0.515840000000     0.795135000000     0          
C1       C      0.938525000000     0.753950000000     0.561475000000     0          
C2       C      0.934255000000     0.699570000000     0.593750000000     0          
H2       H      0.938850000000     0.679450000000     0.611700000000     0          
C3       C      0.953050000000     0.792750000000     0.546950000000     0          
H3A      H      0.979350000000     0.789900000000     0.537150000000     0          
H3B      H      0.952900000000     0.811400000000     0.568200000000     0          
H3C      H      0.936200000000     0.801950000000     0.526250000000     0          
N1       N      0.954865000000     0.734160000000     0.591390000000     0          
C1       C      0.753950000000     0.561475000000     0.938525000000     0          
C2       C      0.699570000000     0.565745000000     0.906250000000     0          
H2       H      0.679450000000     0.561150000000     0.888300000000     0          
C3       C      0.792750000000     0.546950000000     0.953050000000     0          
N1       N      0.734160000000     0.545135000000     0.908610000000     0          
C1       C      0.561475000000     0.746050000000     0.561475000000     0          
C2       C      0.565745000000     0.800430000000     0.593750000000     0          
H2       H      0.561150000000     0.820550000000     0.611700000000     0          
C3       C      0.546950000000     0.707250000000     0.546950000000     0          
H3A      H      0.520650000000     0.710100000000     0.537150000000     0          
H3B      H      0.547100000000     0.688600000000     0.568200000000     0          
H3C      H      0.563800000000     0.698050000000     0.526250000000     0          
N1       N      0.545135000000     0.765840000000     0.591390000000     0          
C1       C      0.746050000000     0.938525000000     0.938525000000     0          
C2       C      0.800430000000     0.934255000000     0.906250000000     0          
H2       H      0.820550000000     0.938850000000     0.888300000000     0          
C3       C      0.707250000000     0.953050000000     0.953050000000     0          
H3A      H      0.710100000000     0.979350000000     0.962850000000     0          
H3B      H      0.688600000000     0.952900000000     0.931800000000     0          
H3C      H      0.698050000000     0.936200000000     0.973750000000     0          
N1       N      0.765840000000     0.954865000000     0.908610000000     0          
C1       C      0.938525000000     0.746050000000     0.938525000000     0          
C2       C      0.934255000000     0.800430000000     0.906250000000     0          
H2       H      0.938850000000     0.820550000000     0.888300000000     0          
C3       C      0.953050000000     0.707250000000     0.953050000000     0          
H3A      H      0.979350000000     0.710100000000     0.962850000000     0          
H3B      H      0.952900000000     0.688600000000     0.931800000000     0          
H3C      H      0.936200000000     0.698050000000     0.973750000000     0          
N1       N      0.954865000000     0.765840000000     0.908610000000     0          
C1       C      0.746050000000     0.561475000000     0.561475000000     0          
C2       C      0.800430000000     0.565745000000     0.593750000000     0          
H2       H      0.820550000000     0.561150000000     0.611700000000     0          
C3       C      0.707250000000     0.546950000000     0.546950000000     0          
N1       N      0.765840000000     0.545135000000     0.591390000000     0          
C1       C      0.561475000000     0.753950000000     0.938525000000     0          
C2       C      0.565745000000     0.699570000000     0.906250000000     0          
H2       H      0.561150000000     0.679450000000     0.888300000000     0          
C3       C      0.546950000000     0.792750000000     0.953050000000     0          
N1       N      0.545135000000     0.734160000000     0.908610000000     0          
C1       C      0.753950000000     0.938525000000     0.561475000000     0          
C2       C      0.699570000000     0.934255000000     0.593750000000     0          
H2       H      0.679450000000     0.938850000000     0.611700000000     0          
C3       C      0.792750000000     0.953050000000     0.546950000000     0          
N1       N      0.734160000000     0.954865000000     0.591390000000     0          
C1       C      0.561475000000     0.938525000000     0.753950000000     0          
C2       C      0.593750000000     0.934255000000     0.699570000000     0          
H2       H      0.611700000000     0.938850000000     0.679450000000     0          
C3       C      0.546950000000     0.953050000000     0.792750000000     0          
N1       N      0.591390000000     0.954865000000     0.734160000000     0          
C1       C      0.938525000000     0.938525000000     0.746050000000     0          
C2       C      0.934255000000     0.906250000000     0.800430000000     0          
H2       H      0.938850000000     0.888300000000     0.820550000000     0          
C3       C      0.953050000000     0.953050000000     0.707250000000     0          
H3A      H      0.979350000000     0.962850000000     0.710100000000     0          
H3B      H      0.952900000000     0.931800000000     0.688600000000     0          
H3C      H      0.936200000000     0.973750000000     0.698050000000     0          
N1       N      0.954865000000     0.908610000000     0.765840000000     0          
C1       C      0.938525000000     0.561475000000     0.753950000000     0          
C2       C      0.906250000000     0.565745000000     0.699570000000     0          
H2       H      0.888300000000     0.561150000000     0.679450000000     0          
C3       C      0.953050000000     0.546950000000     0.792750000000     0          
N1       N      0.908610000000     0.545135000000     0.734160000000     0          
C1       C      0.561475000000     0.561475000000     0.746050000000     0          
C2       C      0.565745000000     0.593750000000     0.800430000000     0          
H2       H      0.561150000000     0.611700000000     0.820550000000     0          
C3       C      0.546950000000     0.546950000000     0.707250000000     0          
H3A      H      0.520650000000     0.537150000000     0.710100000000     0          
H3B      H      0.547100000000     0.568200000000     0.688600000000     0          
H3C      H      0.563800000000     0.526250000000     0.698050000000     0          
N1       N      0.545135000000     0.591390000000     0.765840000000     0          
C2       C      0.593750000000     0.565745000000     0.800430000000     0          
H2       H      0.611700000000     0.561150000000     0.820550000000     0          
N1       N      0.591390000000     0.545135000000     0.765840000000     0          
C2       C      0.565745000000     0.906250000000     0.699570000000     0          
H2       H      0.561150000000     0.888300000000     0.679450000000     0          
H3A      H      0.520650000000     0.962850000000     0.789900000000     0          
H3B      H      0.547100000000     0.931800000000     0.811400000000     0          
H3C      H      0.563800000000     0.973750000000     0.801950000000     0          
N1       N      0.545135000000     0.908610000000     0.734160000000     0          
C2       C      0.906250000000     0.934255000000     0.800430000000     0          
H2       H      0.888300000000     0.938850000000     0.820550000000     0          
N1       N      0.908610000000     0.954865000000     0.765840000000     0          
C2       C      0.934255000000     0.593750000000     0.699570000000     0          
H2       H      0.938850000000     0.611700000000     0.679450000000     0          
H3A      H      0.979350000000     0.537150000000     0.789900000000     0          
H3B      H      0.952900000000     0.568200000000     0.811400000000     0          
H3C      H      0.936200000000     0.526250000000     0.801950000000     0          
N1       N      0.954865000000     0.591390000000     0.734160000000     0          
C2       C      0.699570000000     0.593750000000     0.934255000000     0          
H2       H      0.679450000000     0.611700000000     0.938850000000     0          
H3A      H      0.789900000000     0.537150000000     0.979350000000     0          
H3B      H      0.811400000000     0.568200000000     0.952900000000     0          
H3C      H      0.801950000000     0.526250000000     0.936200000000     0          
N1       N      0.734160000000     0.591390000000     0.954865000000     0          
C2       C      0.699570000000     0.906250000000     0.565745000000     0          
H2       H      0.679450000000     0.888300000000     0.561150000000     0          
H3A      H      0.789900000000     0.962850000000     0.520650000000     0          
H3B      H      0.811400000000     0.931800000000     0.547100000000     0          
H3C      H      0.801950000000     0.973750000000     0.563800000000     0          
N1       N      0.734160000000     0.908610000000     0.545135000000     0          
C2       C      0.906250000000     0.800430000000     0.934255000000     0          
H2       H      0.888300000000     0.820550000000     0.938850000000     0          
N1       N      0.908610000000     0.765840000000     0.954865000000     0          
C2       C      0.800430000000     0.593750000000     0.565745000000     0          
H2       H      0.820550000000     0.611700000000     0.561150000000     0          
H3A      H      0.710100000000     0.537150000000     0.520650000000     0          
H3B      H      0.688600000000     0.568200000000     0.547100000000     0          
H3C      H      0.698050000000     0.526250000000     0.563800000000     0          
N1       N      0.765840000000     0.591390000000     0.545135000000     0          
C2       C      0.593750000000     0.699570000000     0.934255000000     0          
H2       H      0.611700000000     0.679450000000     0.938850000000     0          
H3A      H      0.537150000000     0.789900000000     0.979350000000     0          
H3B      H      0.568200000000     0.811400000000     0.952900000000     0          
H3C      H      0.526250000000     0.801950000000     0.936200000000     0          
N1       N      0.591390000000     0.734160000000     0.954865000000     0          
C2       C      0.800430000000     0.906250000000     0.934255000000     0          
H2       H      0.820550000000     0.888300000000     0.938850000000     0          
N1       N      0.765840000000     0.908610000000     0.954865000000     0          
C2       C      0.906250000000     0.699570000000     0.565745000000     0          
H2       H      0.888300000000     0.679450000000     0.561150000000     0          
N1       N      0.908610000000     0.734160000000     0.545135000000     0          
C2       C      0.593750000000     0.800430000000     0.565745000000     0          
H2       H      0.611700000000     0.820550000000     0.561150000000     0          
N1       N      0.591390000000     0.765840000000     0.545135000000     0          


